version 3
run General-0-20231201-14:35:40-15372
attr configname General
attr datetime 20231201-14:35:40
attr datetimef 20231201-143540
attr experiment General
attr inifile rede2.ini
attr iterationvars ""
attr iterationvarsd ""
attr iterationvarsf ""
attr measurement ""
attr network rede02
attr processid 15372
attr repetition 0
attr replication #0
attr resultdir results
attr runnumber 0
attr seedset 0
config image-path ../../inet4.5/images
config network rede02
config sim-time-limit 5s
config *.*.wlan.interfaceTableModule "\"\""
config *.nodo*.energyStorage.nominalCapacity 2J
config *.*.wlan.radio.energyConsumer.typename StateBasedEpEnergyConsumer
config *.*.wlan.radio.energyConsumer.sleepPowerConsumption 1mW
config *.*.wlan.radio.energyConsumer.receiverIdlePowerConsumption 2mW
config *.*.wlan.radio.energyConsumer.receiverBusyPowerConsumption 5mW
config *.*.wlan.radio.energyConsumer.receiverReceivingPowerConsumption 10mW
config *.*.wlan.radio.energyConsumer.transmitterIdlePowerConsumption 2mW
config *.*.wlan.radio.energyConsumer.transmitterTransmittingPowerConsumption 100mW
config *.nodo0.mobility.initialX 15m
config *.nodo0.mobility.initialY 15m
config *.nodo0.mobility.initialZ 2m
config *.nodo1.mobility.initialX 30m
config *.nodo1.mobility.initialY 15m
config *.nodo1.mobility.initialZ 2m
config *.nodo2.mobility.initialX 45m
config *.nodo2.mobility.initialY 15m
config *.nodo2.mobility.initialZ 2m
config *.nodo3.mobility.initialX 15m
config *.nodo3.mobility.initialY 30m
config *.nodo3.mobility.initialZ 2m
config *.nodo4.mobility.initialX 30m
config *.nodo4.mobility.initialY 30m
config *.nodo4.mobility.initialZ 2m
config *.nodo5.mobility.initialX 45m
config *.nodo5.mobility.initialY 30m
config *.nodo5.mobility.initialZ 2m
config *.nodo6.mobility.initialX 15m
config *.nodo6.mobility.initialY 45m
config *.nodo6.mobility.initialZ 2m
config *.nodo7.mobility.initialX 30m
config *.nodo7.mobility.initialY 45m
config *.nodo7.mobility.initialZ 2m
config *.nodo8.mobility.initialX 45m
config *.nodo8.mobility.initialY 45m
config *.nodo8.mobility.initialZ 2m
config *.nodo9.mobility.initialX 60m
config *.nodo9.mobility.initialY 15m
config *.nodo9.mobility.initialZ 2m
config *.nodo10.mobility.initialX 75m
config *.nodo10.mobility.initialY 15m
config *.nodo10.mobility.initialZ 2m
config *.nodo11.mobility.initialX 90m
config *.nodo11.mobility.initialY 15m
config *.nodo11.mobility.initialZ 2m
config *.nodo12.mobility.initialX 60m
config *.nodo12.mobility.initialY 30m
config *.nodo12.mobility.initialZ 2m
config *.nodo13.mobility.initialX 75m
config *.nodo13.mobility.initialY 30m
config *.nodo13.mobility.initialZ 2m
config *.nodo14.mobility.initialX 90m
config *.nodo14.mobility.initialY 30m
config *.nodo14.mobility.initialZ 2m
config *.nodo15.mobility.initialX 60m
config *.nodo15.mobility.initialY 45m
config *.nodo15.mobility.initialZ 2m
config *.nodo16.mobility.initialX 75m
config *.nodo16.mobility.initialY 45m
config *.nodo16.mobility.initialZ 2m
config *.nodo17.mobility.initialX 90m
config *.nodo17.mobility.initialY 45m
config *.nodo17.mobility.initialZ 2m
config *.nodo18.mobility.initialX 45m
config *.nodo18.mobility.initialY 22.5m
config *.nodo18.mobility.initialZ 2m
config *.nodo0.app.numero 0
config *.nodo0.app.sink false
config *.nodo1.app.numero 1
config *.nodo1.app.sink false
config *.nodo2.app.numero 2
config *.nodo2.app.sink false
config *.nodo3.app.numero 3
config *.nodo3.app.sink false
config *.nodo4.app.numero 4
config *.nodo4.app.sink false
config *.nodo5.app.numero 5
config *.nodo5.app.sink false
config *.nodo6.app.numero 6
config *.nodo6.app.sink false
config *.nodo7.app.numero 7
config *.nodo7.app.sink false
config *.nodo8.app.numero 8
config *.nodo8.app.sink false
config *.nodo9.app.numero 9
config *.nodo9.app.sink false
config *.nodo10.app.numero 10
config *.nodo10.app.sink false
config *.nodo11.app.numero 11
config *.nodo11.app.sink false
config *.nodo12.app.numero 12
config *.nodo12.app.sink false
config *.nodo13.app.numero 13
config *.nodo13.app.sink false
config *.nodo14.app.numero 14
config *.nodo14.app.sink false
config *.nodo15.app.numero 15
config *.nodo15.app.sink false
config *.nodo16.app.numero 16
config *.nodo16.app.sink false
config *.nodo17.app.numero 17
config *.nodo17.app.sink false
config *.nodo18.app.numero 18
config *.nodo18.app.sink true

par rede02.radioMedium.propagation typename "\"inet.physicallayer.wireless.common.propagation.ConstantSpeedPropagation\""
par rede02.radioMedium.propagation propagationSpeed 2.99792e+08mps
attr unit mps
par rede02.radioMedium.propagation ignoreMovementDuringTransmission true
par rede02.radioMedium.propagation ignoreMovementDuringPropagation true
par rede02.radioMedium.propagation ignoreMovementDuringReception true
scalar rede02.radioMedium.propagation "Arrival computation count" 576
par rede02.radioMedium.analogModel typename "\"inet.physicallayer.wireless.common.analogmodel.packetlevel.ScalarAnalogModel\""
par rede02.radioMedium.analogModel ignorePartialInterference false
par rede02.radioMedium.backgroundNoise typename "\"inet.physicallayer.wireless.common.backgroundnoise.IsotropicScalarBackgroundNoise\""
par rede02.radioMedium.backgroundNoise power -96.616dBm
attr unit dBm
par rede02.radioMedium.backgroundNoise bandwidth "nan Hz"
attr unit Hz
par rede02.radioMedium.pathLoss typename "\"inet.physicallayer.wireless.common.pathloss.BreakpointPathLoss\""
par rede02.radioMedium.pathLoss l01 40.2
par rede02.radioMedium.pathLoss l02 58.5
par rede02.radioMedium.pathLoss alpha1 2
par rede02.radioMedium.pathLoss alpha2 3.3
par rede02.radioMedium.pathLoss breakpointDistance 8m
attr unit m
par rede02.radioMedium.mediumLimitCache typename "\"inet.physicallayer.wireless.common.medium.MediumLimitCache\""
par rede02.radioMedium.mediumLimitCache centerFrequency 2.45e+09Hz
attr unit Hz
par rede02.radioMedium.mediumLimitCache maxSpeed "nan mps"
attr unit mps
par rede02.radioMedium.mediumLimitCache maxTransmissionPower "nan W"
attr unit W
par rede02.radioMedium.mediumLimitCache minInterferencePower "nan dBm"
attr unit dBm
par rede02.radioMedium.mediumLimitCache minReceptionPower "nan dBm"
attr unit dBm
par rede02.radioMedium.mediumLimitCache maxAntennaGain 0dB
attr unit dB
par rede02.radioMedium.mediumLimitCache minInterferenceTime 1e-12s
attr unit s
par rede02.radioMedium.mediumLimitCache maxTransmissionDuration 0.01s
attr unit s
par rede02.radioMedium.mediumLimitCache maxCommunicationRange "nan m"
attr unit m
par rede02.radioMedium.mediumLimitCache maxInterferenceRange "nan m"
attr unit m
par rede02.radioMedium.communicationCache typename "\"inet.physicallayer.wireless.common.communicationcache.VectorCommunicationCache\""
par rede02.radioMedium typename "\"inet.physicallayer.wireless.ieee802154.packetlevel.Ieee802154NarrowbandScalarRadioMedium\""
par rede02.radioMedium physicalEnvironmentModule "\"physicalEnvironment\""
par rede02.radioMedium signalAnalogRepresentation "\"scalar\""
attr enum unitDisk,scalar,dimensional
par rede02.radioMedium rangeFilter "\"\""
par rede02.radioMedium radioModeFilter false
par rede02.radioMedium listeningFilter false
par rede02.radioMedium macAddressFilter false
par rede02.radioMedium recordTransmissionLog false
par rede02.radioMedium recordReceptionLog false
scalar rede02.radioMedium "transmission count" 32
scalar rede02.radioMedium "signal send count" 576
scalar rede02.radioMedium "reception computation count" 576
scalar rede02.radioMedium "interference computation count" 1798
scalar rede02.radioMedium "reception decision computation count" 576
scalar rede02.radioMedium "listening decision computation count" 646
scalar rede02.radioMedium "reception cache hit" 85.714285714286
attr unit %
scalar rede02.radioMedium "interference cache hit" 66.666666666667
attr unit %
scalar rede02.radioMedium "noise cache hit" 0
attr unit %
scalar rede02.radioMedium "snir cache hit" 50
attr unit %
scalar rede02.radioMedium "reception decision cache hit" 50
attr unit %
scalar rede02.radioMedium "reception result cache hit" 0
attr unit %
par rede02.nodo0.app typename "\"rssf01.Aplicacao\""
par rede02.nodo0.app numero 0
attr type int
par rede02.nodo0.app sink false
attr type bool
par rede02.nodo0.wlan.upperLayerIn.channel typename "\"ned.IdealChannel\""
par rede02.nodo0.wlan.radioIn.channel typename "\"ned.IdealChannel\""
par rede02.nodo0.wlan.mac.upperLayerOut.channel typename "\"ned.IdealChannel\""
par rede02.nodo0.wlan.queue typename "\"inet.queueing.queue.DropTailQueue\""
par rede02.nodo0.wlan.queue displayStringTextFormat "\"contains %p pk (%l) pushed %u\\npulled %o removed %r dropped %d\""
par rede02.nodo0.wlan.queue packetCapacity 100
par rede02.nodo0.wlan.queue dataCapacity -1b
attr unit b
par rede02.nodo0.wlan.queue dropperClass "\"inet::queueing::PacketAtCollectionEndDropper\""
par rede02.nodo0.wlan.queue comparatorClass "\"\""
par rede02.nodo0.wlan.queue bufferModule "\"\""
scalar rede02.nodo0.wlan.queue queueLength:last 0
attr autoWarmupFilter false
attr interpolationmode sample-hold
attr recordingmode last
attr source "warmup(atomic(constant0(packetPushEnded) + count(packetPushStarted) - count(packetPulled) - count(packetRemoved) - count(packetDropped)))"
attr title "queue length, last"
attr unit pk
scalar rede02.nodo0.wlan.queue queueLength:max 1
attr autoWarmupFilter false
attr interpolationmode sample-hold
attr recordingmode max
attr source "warmup(atomic(constant0(packetPushEnded) + count(packetPushStarted) - count(packetPulled) - count(packetRemoved) - count(packetDropped)))"
attr title "queue length, max"
attr unit pk
scalar rede02.nodo0.wlan.queue queueLength:timeavg 0.0002816
attr autoWarmupFilter false
attr interpolationmode sample-hold
attr recordingmode timeavg
attr source "warmup(atomic(constant0(packetPushEnded) + count(packetPushStarted) - count(packetPulled) - count(packetRemoved) - count(packetDropped)))"
attr title "queue length, timeavg"
attr unit pk
scalar rede02.nodo0.wlan.queue queueBitLength:last 0
attr autoWarmupFilter false
attr interpolationmode sample-hold
attr recordingmode last
attr source "warmup(atomic(constant0(packetPushEnded) + sum(packetLength(packetPushStarted)) - sum(packetLength(packetPulled)) - sum(packetLength(packetRemoved)) - sum(packetLength(packetDropped))))"
attr title "queue bit length, last"
attr unit b
scalar rede02.nodo0.wlan.queue queueBitLength:max 0
attr autoWarmupFilter false
attr interpolationmode sample-hold
attr recordingmode max
attr source "warmup(atomic(constant0(packetPushEnded) + sum(packetLength(packetPushStarted)) - sum(packetLength(packetPulled)) - sum(packetLength(packetRemoved)) - sum(packetLength(packetDropped))))"
attr title "queue bit length, max"
attr unit b
scalar rede02.nodo0.wlan.queue queueBitLength:timeavg 0
attr autoWarmupFilter false
attr interpolationmode sample-hold
attr recordingmode timeavg
attr source "warmup(atomic(constant0(packetPushEnded) + sum(packetLength(packetPushStarted)) - sum(packetLength(packetPulled)) - sum(packetLength(packetRemoved)) - sum(packetLength(packetDropped))))"
attr title "queue bit length, timeavg"
attr unit b
statistic rede02.nodo0.wlan.queue queueingTime:histogram
field count 1
field mean 0.001408
field stddev nan
field min 0.001408
field max 0.001408
field sum 0.001408
field sqrsum 1.982464e-06
attr interpolationmode none
attr recordingmode histogram
attr source queueingTime(packetPulled)
attr title "queueing times"
attr unit s
bin	-inf	0
bin	0	1
bin	0.01	0
bin	0.02	0
bin	0.03	0
bin	0.04	0
bin	0.05	0
bin	0.06	0
bin	0.07	0
bin	0.08	0
bin	0.09	0
bin	0.1	0
bin	0.11	0
bin	0.12	0
bin	0.13	0
bin	0.14	0
bin	0.15	0
bin	0.16	0
bin	0.17	0
bin	0.18	0
bin	0.19	0
bin	0.2	0
bin	0.21	0
bin	0.22	0
bin	0.23	0
bin	0.24	0
bin	0.25	0
bin	0.26	0
bin	0.27	0
bin	0.28	0
bin	0.29	0
bin	0.3	0
bin	0.31	0
bin	0.32	0
bin	0.33	0
bin	0.34	0
bin	0.35	0
bin	0.36	0
bin	0.37	0
bin	0.38	0
bin	0.39	0
bin	0.4	0
bin	0.41	0
bin	0.42	0
bin	0.43	0
bin	0.44	0
bin	0.45	0
bin	0.46	0
bin	0.47	0
bin	0.48	0
bin	0.49	0
bin	0.5	0
bin	0.51	0
scalar rede02.nodo0.wlan.queue outgoingPackets:count 1
attr recordingmode count
attr source packetPulled
attr title "outgoing packets, count"
attr unit pk
scalar rede02.nodo0.wlan.queue outgoingPacketLengths:sum 0
attr interpolationmode none
attr recordingmode sum
attr source packetLength(packetPulled)
attr title "outgoing packet lengths, sum"
attr unit b
statistic rede02.nodo0.wlan.queue outgoingPacketLengths:histogram
field count 1
field mean 0
field stddev nan
field min 0
field max 0
field sum 0
field sqrsum 0
attr interpolationmode none
attr recordingmode histogram
attr source packetLength(packetPulled)
attr title "outgoing packet lengths"
attr unit b
bin	-inf	0
bin	-0.5	0
bin	-0.48	0
bin	-0.46	0
bin	-0.44	0
bin	-0.42	0
bin	-0.4	0
bin	-0.38	0
bin	-0.36	0
bin	-0.34	0
bin	-0.32	0
bin	-0.3	0
bin	-0.28	0
bin	-0.26	0
bin	-0.24	0
bin	-0.22	0
bin	-0.2	0
bin	-0.18	0
bin	-0.16	0
bin	-0.14	0
bin	-0.12	0
bin	-0.1	0
bin	-0.08	0
bin	-0.06	0
bin	-0.04	0
bin	-0.02	0
bin	0	1
bin	0.02	0
bin	0.04	0
bin	0.06	0
bin	0.08	0
bin	0.1	0
bin	0.12	0
bin	0.14	0
bin	0.16	0
bin	0.18	0
bin	0.2	0
bin	0.22	0
bin	0.24	0
bin	0.26	0
bin	0.28	0
bin	0.3	0
bin	0.32	0
bin	0.34	0
bin	0.36	0
bin	0.38	0
bin	0.4	0
bin	0.42	0
bin	0.44	0
bin	0.46	0
bin	0.48	0
bin	0.5	0
statistic rede02.nodo0.wlan.queue flowQueueingTime:histogram
field count 0
field mean nan
field stddev nan
field min nan
field max nan
field sum 0
field sqrsum 0
attr interpolationmode none
attr recordingmode histogram
attr source queueingTime(demuxFlow(packetPulled))
attr title "flow queueing times"
attr unit s
bin	-inf	0
bin	0	0
bin	1	0
scalar rede02.nodo0.wlan.queue incomingPackets:count 1
attr recordingmode count
attr source packetPushStarted
attr title "incoming packets, count"
attr unit pk
scalar rede02.nodo0.wlan.queue incomingPacketLengths:sum 0
attr interpolationmode none
attr recordingmode sum
attr source packetLength(packetPushStarted)
attr title "incoming packet lengths, sum"
attr unit b
statistic rede02.nodo0.wlan.queue incomingPacketLengths:histogram
field count 1
field mean 0
field stddev nan
field min 0
field max 0
field sum 0
field sqrsum 0
attr interpolationmode none
attr recordingmode histogram
attr source packetLength(packetPushStarted)
attr title "incoming packet lengths"
attr unit b
bin	-inf	0
bin	-0.5	0
bin	-0.48	0
bin	-0.46	0
bin	-0.44	0
bin	-0.42	0
bin	-0.4	0
bin	-0.38	0
bin	-0.36	0
bin	-0.34	0
bin	-0.32	0
bin	-0.3	0
bin	-0.28	0
bin	-0.26	0
bin	-0.24	0
bin	-0.22	0
bin	-0.2	0
bin	-0.18	0
bin	-0.16	0
bin	-0.14	0
bin	-0.12	0
bin	-0.1	0
bin	-0.08	0
bin	-0.06	0
bin	-0.04	0
bin	-0.02	0
bin	0	1
bin	0.02	0
bin	0.04	0
bin	0.06	0
bin	0.08	0
bin	0.1	0
bin	0.12	0
bin	0.14	0
bin	0.16	0
bin	0.18	0
bin	0.2	0
bin	0.22	0
bin	0.24	0
bin	0.26	0
bin	0.28	0
bin	0.3	0
bin	0.32	0
bin	0.34	0
bin	0.36	0
bin	0.38	0
bin	0.4	0
bin	0.42	0
bin	0.44	0
bin	0.46	0
bin	0.48	0
bin	0.5	0
scalar rede02.nodo0.wlan.queue droppedPacketsQueueOverflow:count 0
attr interpolationmode none
attr recordingmode count
attr source packetDropReasonIsQueueOverflow(packetDropped)
attr title "dropped packets: queue overflow, count"
attr unit pk
scalar rede02.nodo0.wlan.queue droppedPacketLengthsQueueOverflow:sum 0
attr interpolationmode none
attr recordingmode sum
attr source packetLength(packetDropReasonIsQueueOverflow(packetDropped))
attr title "dropped packet lengths: queue overflow, sum"
attr unit b
par rede02.nodo0.wlan.mac typename "\"inet.linklayer.ieee802154.Ieee802154NarrowbandMac\""
par rede02.nodo0.wlan.mac interfaceTableModule "\"\""
par rede02.nodo0.wlan.mac address "\"auto\""
attr mutable ""
par rede02.nodo0.wlan.mac headerLength 72b
attr unit b
par rede02.nodo0.wlan.mac mtu 118B
attr unit B
par rede02.nodo0.wlan.mac bitrate 250000bps
attr unit bps
par rede02.nodo0.wlan.mac ccaDetectionTime 0.000128s
attr unit s
par rede02.nodo0.wlan.mac rxSetupTime 0s
attr unit s
par rede02.nodo0.wlan.mac aTurnaroundTime 0.000192s
attr unit s
par rede02.nodo0.wlan.mac useMACAcks true
par rede02.nodo0.wlan.mac macMaxFrameRetries 3
par rede02.nodo0.wlan.mac macAckWaitDuration 0.00056s
attr unit s
par rede02.nodo0.wlan.mac ackLength 40b
attr unit b
par rede02.nodo0.wlan.mac sifs 0.000192s
attr unit s
par rede02.nodo0.wlan.mac backoffMethod "\"exponential\""
par rede02.nodo0.wlan.mac macMaxCSMABackoffs 4
par rede02.nodo0.wlan.mac aUnitBackoffPeriod 0.00032s
attr unit s
par rede02.nodo0.wlan.mac contentionWindow 2
par rede02.nodo0.wlan.mac macMinBE 3
par rede02.nodo0.wlan.mac macMaxBE 5
par rede02.nodo0.wlan.mac radioModule "\"^.radio\""
scalar rede02.nodo0.wlan.mac nbTxFrames 1
scalar rede02.nodo0.wlan.mac nbRxFrames 31
scalar rede02.nodo0.wlan.mac nbDroppedFrames 0
scalar rede02.nodo0.wlan.mac nbMissedAcks 0
scalar rede02.nodo0.wlan.mac nbRecvdAcks 0
scalar rede02.nodo0.wlan.mac nbTxAcks 0
scalar rede02.nodo0.wlan.mac nbDuplicates 0
scalar rede02.nodo0.wlan.mac meanBackoff 0.00128
scalar rede02.nodo0.wlan.mac nbBackoffs 1
scalar rede02.nodo0.wlan.mac backoffDurations 0.00128
scalar rede02.nodo0.wlan.mac packetDropNotAddressToUs:count 0
attr interpolationmode none
attr recordingmode count
attr source packetDropReasonIsNotAddressedToUs(packetDropped)
attr title "packet drop: not addressed to us, count"
scalar rede02.nodo0.wlan.mac packetDropNotAddressToUs:sum(packetBytes) 0
attr interpolationmode none
attr recordingmode sum(packetBytes)
attr source packetDropReasonIsNotAddressedToUs(packetDropped)
attr title "packet drop: not addressed to us, sum(packetBytes)"
scalar rede02.nodo0.wlan.mac packetDropIncorrectlyReceived:count 0
attr interpolationmode none
attr recordingmode count
attr source packetDropReasonIsIncorrectlyReceived(packetDropped)
attr title "packet drop: incorrectly received, count"
scalar rede02.nodo0.wlan.mac packetDropIncorrectlyReceived:sum(packetBytes) 0
attr interpolationmode none
attr recordingmode sum(packetBytes)
attr source packetDropReasonIsIncorrectlyReceived(packetDropped)
attr title "packet drop: incorrectly received, sum(packetBytes)"
scalar rede02.nodo0.wlan.mac packetDropQueueOverflow:count 0
attr interpolationmode none
attr recordingmode count
attr source packetDropReasonIsQueueOverflow(packetDropped)
attr title "packet drop: queue overflow, count"
scalar rede02.nodo0.wlan.mac packetDropQueueOverflow:sum(packetBytes) 0
attr interpolationmode none
attr recordingmode sum(packetBytes)
attr source packetDropReasonIsQueueOverflow(packetDropped)
attr title "packet drop: queue overflow, sum(packetBytes)"
scalar rede02.nodo0.wlan.mac packetDropRetryLimitReached:count 0
attr interpolationmode none
attr recordingmode count
attr source packetDropReasonIsRetryLimitReached(packetDropped)
attr title "packet drop: retry limit reached, count"
scalar rede02.nodo0.wlan.mac packetDropRetryLimitReached:sum(packetBytes) 0
attr interpolationmode none
attr recordingmode sum(packetBytes)
attr source packetDropReasonIsRetryLimitReached(packetDropped)
attr title "packet drop: retry limit reached, sum(packetBytes)"
scalar rede02.nodo0.wlan.mac packetDropBackoffLimitReached:count 0
attr interpolationmode none
attr recordingmode count
attr source packetDropReasonIsCongestion(packetDropped)
attr title "packet drop: backoff limit reached, count"
scalar rede02.nodo0.wlan.mac packetDropBackoffLimitReached:sum(packetBytes) 0
attr interpolationmode none
attr recordingmode sum(packetBytes)
attr source packetDropReasonIsCongestion(packetDropped)
attr title "packet drop: backoff limit reached, sum(packetBytes)"
scalar rede02.nodo0.wlan.mac linkBroken:count 0
attr interpolationmode none
attr recordingmode count
attr source linkBroken
attr title "link break, count"
par rede02.nodo0.wlan.radio.antenna typename "\"inet.physicallayer.wireless.common.antenna.IsotropicAntenna\""
par rede02.nodo0.wlan.radio.antenna mobilityModule "\"^.^.^.mobility\""
par rede02.nodo0.wlan.radio.antenna numAntennas 1
par rede02.nodo0.wlan.radio.transmitter typename "\"inet.physicallayer.wireless.ieee802154.packetlevel.Ieee802154NarrowbandScalarTransmitter\""
par rede02.nodo0.wlan.radio.transmitter preambleDuration 0.000128s
attr unit s
par rede02.nodo0.wlan.radio.transmitter headerLength 16b
attr unit b
par rede02.nodo0.wlan.radio.transmitter bitrate 250000bps
attr unit bps
par rede02.nodo0.wlan.radio.transmitter power 0.00224W
attr unit W
par rede02.nodo0.wlan.radio.transmitter centerFrequency 2.45e+09Hz
attr unit Hz
par rede02.nodo0.wlan.radio.transmitter bandwidth 2.8e+06Hz
attr unit Hz
par rede02.nodo0.wlan.radio.transmitter codeRate 1
par rede02.nodo0.wlan.radio.transmitter modulation "\"DSSS-OQPSK-16\""
par rede02.nodo0.wlan.radio.receiver.errorModel typename "\"inet.physicallayer.wireless.apsk.packetlevel.errormodel.ApskErrorModel\""
par rede02.nodo0.wlan.radio.receiver.errorModel corruptionMode "\"packet\""
attr enum packet,chunk,byte,bit
par rede02.nodo0.wlan.radio.receiver.errorModel snirMode "\"min\""
attr enum min,mean
par rede02.nodo0.wlan.radio.receiver.errorModel snirOffset 0dB
attr unit dB
par rede02.nodo0.wlan.radio.receiver typename "\"inet.physicallayer.wireless.ieee802154.packetlevel.Ieee802154NarrowbandScalarReceiver\""
par rede02.nodo0.wlan.radio.receiver snirThreshold -8dB
attr unit dB
par rede02.nodo0.wlan.radio.receiver snirThresholdMode "\"min\""
attr enum min,mean
par rede02.nodo0.wlan.radio.receiver energyDetection -90dBm
attr unit dBm
par rede02.nodo0.wlan.radio.receiver sensitivity -100dBm
attr unit dBm
par rede02.nodo0.wlan.radio.receiver centerFrequency 2.45e+09Hz
attr unit Hz
par rede02.nodo0.wlan.radio.receiver bandwidth 2.8e+06Hz
attr unit Hz
par rede02.nodo0.wlan.radio.receiver modulation "\"DSSS-OQPSK-16\""
par rede02.nodo0.wlan.radio.receiver minInterferencePower -120dBm
attr unit dBm
par rede02.nodo0.wlan.radio.energyConsumer typename "\"inet.physicallayer.wireless.common.energyconsumer.StateBasedEpEnergyConsumer\""
par rede02.nodo0.wlan.radio.energyConsumer energySourceModule "\"rede02.nodo0.wlan.^.energyStorage\""
par rede02.nodo0.wlan.radio.energyConsumer offPowerConsumption 0W
attr unit W
par rede02.nodo0.wlan.radio.energyConsumer sleepPowerConsumption 0.001W
attr unit W
par rede02.nodo0.wlan.radio.energyConsumer switchingPowerConsumption 0.001W
attr unit W
par rede02.nodo0.wlan.radio.energyConsumer receiverIdlePowerConsumption 0.002W
attr unit W
par rede02.nodo0.wlan.radio.energyConsumer receiverBusyPowerConsumption 0.005W
attr unit W
par rede02.nodo0.wlan.radio.energyConsumer receiverReceivingPowerConsumption 0.01W
attr unit W
par rede02.nodo0.wlan.radio.energyConsumer receiverReceivingPreamblePowerConsumption 0.01W
attr unit W
par rede02.nodo0.wlan.radio.energyConsumer receiverReceivingHeaderPowerConsumption 0.01W
attr unit W
par rede02.nodo0.wlan.radio.energyConsumer receiverReceivingDataPowerConsumption 0.01W
attr unit W
par rede02.nodo0.wlan.radio.energyConsumer transmitterIdlePowerConsumption 0.002W
attr unit W
par rede02.nodo0.wlan.radio.energyConsumer transmitterTransmittingPowerConsumption 0.1W
attr unit W
par rede02.nodo0.wlan.radio.energyConsumer transmitterTransmittingPreamblePowerConsumption 0.1W
attr unit W
par rede02.nodo0.wlan.radio.energyConsumer transmitterTransmittingHeaderPowerConsumption 0.1W
attr unit W
par rede02.nodo0.wlan.radio.energyConsumer transmitterTransmittingDataPowerConsumption 0.1W
attr unit W
par rede02.nodo0.wlan.radio typename "\"inet.physicallayer.wireless.ieee802154.packetlevel.Ieee802154NarrowbandScalarRadio\""
par rede02.nodo0.wlan.radio radioMediumModule "\"radioMedium\""
par rede02.nodo0.wlan.radio energySourceModule "\"rede02.nodo0.wlan.^.energyStorage\""
par rede02.nodo0.wlan.radio initialRadioMode "\"off\""
attr enum off,sleep,receiver,transmitter,transceiver
par rede02.nodo0.wlan.radio switchingTimes "\"ms 0 0 0 0 0 0 0 0 0 0 0 0 0 0 0 0 0 0 0 0 0 0 0 0 0\""
par rede02.nodo0.wlan.radio sendRawBytes false
par rede02.nodo0.wlan.radio separateTransmissionParts false
par rede02.nodo0.wlan.radio separateReceptionParts false
par rede02.nodo0.wlan.radio displayCommunicationRange false
par rede02.nodo0.wlan.radio displayInterferenceRange false
par rede02.nodo0.wlan.radio centerFrequency 2.45e+09Hz
attr unit Hz
par rede02.nodo0.wlan.radio bandwidth 2.8e+06Hz
attr unit Hz
par rede02.nodo0.wlan.radio signalAnalogRepresentation "\"scalar\""
attr enum scalar,dimensional
statistic rede02.nodo0.wlan.radio minSnir:histogram
field count 31
field mean 280.89646401369
field stddev 539.10671500302
field min 7.0467217646106
field max 1823.6597820344
field sum 8707.7903844245
field sqrsum 11165069.033198
attr recordingmode histogram
attr source minimumSnir(packetSentToUpper)
attr title "Min SNIR"
bin	-inf	0
bin	0	16
bin	50	3
bin	100	3
bin	150	3
bin	200	0
bin	250	0
bin	300	0
bin	350	0
bin	400	0
bin	450	0
bin	500	0
bin	550	3
bin	600	0
bin	650	0
bin	700	0
bin	750	0
bin	800	0
bin	850	0
bin	900	0
bin	950	0
bin	1000	0
bin	1050	0
bin	1100	0
bin	1150	0
bin	1200	0
bin	1250	0
bin	1300	0
bin	1350	0
bin	1400	0
bin	1450	0
bin	1500	0
bin	1550	0
bin	1600	0
bin	1650	0
bin	1700	0
bin	1750	0
bin	1800	3
bin	1850	0
bin	1900	0
bin	1950	0
bin	2000	0
bin	2050	0
bin	2100	0
bin	2150	0
bin	2200	0
bin	2250	0
bin	2300	0
statistic rede02.nodo0.wlan.radio packetErrorRate:histogram
field count 31
field mean 0
field stddev 0
field min 0
field max 0
field sum 0
field sqrsum 0
attr recordingmode histogram
attr source packetErrorRate(packetSentToUpper)
attr title "Packet error rate"
bin	-inf	0
bin	-0.5	0
bin	-0.48	0
bin	-0.46	0
bin	-0.44	0
bin	-0.42	0
bin	-0.4	0
bin	-0.38	0
bin	-0.36	0
bin	-0.34	0
bin	-0.32	0
bin	-0.3	0
bin	-0.28	0
bin	-0.26	0
bin	-0.24	0
bin	-0.22	0
bin	-0.2	0
bin	-0.18	0
bin	-0.16	0
bin	-0.14	0
bin	-0.12	0
bin	-0.1	0
bin	-0.08	0
bin	-0.06	0
bin	-0.04	0
bin	-0.02	0
bin	0	31
bin	0.02	0
bin	0.04	0
bin	0.06	0
bin	0.08	0
bin	0.1	0
bin	0.12	0
bin	0.14	0
bin	0.16	0
bin	0.18	0
bin	0.2	0
bin	0.22	0
bin	0.24	0
bin	0.26	0
bin	0.28	0
bin	0.3	0
bin	0.32	0
bin	0.34	0
bin	0.36	0
bin	0.38	0
bin	0.4	0
bin	0.42	0
bin	0.44	0
bin	0.46	0
bin	0.48	0
bin	0.5	0
statistic rede02.nodo0.wlan.radio bitErrorRate:histogram
field count 31
field mean 3.2149580342406e-32
field stddev 1.7900095135647e-31
field min 0
field max 9.9663517828541e-31
field sum 9.9663699061457e-31
field sqrsum 9.9328167859762e-61
attr recordingmode histogram
attr source bitErrorRate(packetSentToUpper)
attr title "Bit error rate"
bin	-inf	0
bin	0	30
bin	2e-32	0
bin	4e-32	0
bin	6e-32	0
bin	8e-32	0
bin	1e-31	0
bin	1.2e-31	0
bin	1.4e-31	0
bin	1.6e-31	0
bin	1.8e-31	0
bin	2e-31	0
bin	2.2e-31	0
bin	2.4e-31	0
bin	2.6e-31	0
bin	2.8e-31	0
bin	3e-31	0
bin	3.2e-31	0
bin	3.4e-31	0
bin	3.6e-31	0
bin	3.8e-31	0
bin	4e-31	0
bin	4.2e-31	0
bin	4.4e-31	0
bin	4.6e-31	0
bin	4.8e-31	0
bin	5e-31	0
bin	5.2e-31	0
bin	5.4e-31	0
bin	5.6e-31	0
bin	5.8e-31	0
bin	6e-31	0
bin	6.2e-31	0
bin	6.4e-31	0
bin	6.6e-31	0
bin	6.8e-31	0
bin	7e-31	0
bin	7.2e-31	0
bin	7.4e-31	0
bin	7.6e-31	0
bin	7.8e-31	0
bin	8e-31	0
bin	8.2e-31	0
bin	8.4e-31	0
bin	8.6e-31	0
bin	8.8e-31	0
bin	9e-31	0
bin	9.2e-31	0
bin	9.4e-31	0
bin	9.6e-31	0
bin	9.8e-31	1
bin	1e-30	0
bin	1.02e-30	0
bin	1.04e-30	0
bin	1.06e-30	0
bin	1.08e-30	0
bin	1.1e-30	0
bin	1.12e-30	0
bin	1.14e-30	0
bin	1.16e-30	0
bin	1.18e-30	0
bin	1.2e-30	0
bin	1.22e-30	0
bin	1.24e-30	0
bin	1.26e-30	0
statistic rede02.nodo0.wlan.radio symbolErrorRate:histogram
field count 0
field mean nan
field stddev nan
field min nan
field max nan
field sum 0
field sqrsum 0
attr recordingmode histogram
attr source symbolErrorRate(packetSentToUpper)
attr title "Symbol error rate"
bin	-inf	0
bin	0	0
bin	1	0
scalar rede02.nodo0.wlan.radio transmissionState:count 4
attr interpolationmode sample-hold
attr recordingmode count
attr source transmissionStateChanged
attr title "Radio transmission state, count"
scalar rede02.nodo0.wlan.radio receptionState:count 65
attr interpolationmode sample-hold
attr recordingmode count
attr source receptionStateChanged
attr title "Radio reception state, count"
scalar rede02.nodo0.wlan.radio radioMode:count 5
attr interpolationmode sample-hold
attr recordingmode count
attr source radioModeChanged
attr title "Radio mode, count"
par rede02.nodo0.wlan typename "\"inet.linklayer.ieee802154.Ieee802154NarrowbandInterface\""
par rede02.nodo0.wlan displayStringTextFormat "\"%a (%i)\\n%m\""
par rede02.nodo0.wlan recordPcap false
par rede02.nodo0.wlan numPcapRecorders 0
par rede02.nodo0.wlan interfaceTableModule "\"\""
par rede02.nodo0.wlan energySourceModule "\"^.energyStorage\""
scalar rede02.nodo0.wlan packetDropInterfaceDown:count 0
attr interpolationmode none
attr recordingmode count
attr source packetDropReasonIsInterfaceDown(packetDropped)
attr title "packet drops: interface down, count"
scalar rede02.nodo0.wlan packetDropInterfaceDown:sum(packetBytes) 0
attr interpolationmode none
attr recordingmode sum(packetBytes)
attr source packetDropReasonIsInterfaceDown(packetDropped)
attr title "packet drops: interface down, sum(packetBytes)"
scalar rede02.nodo0.wlan packetDropNoCarrier:count 0
attr interpolationmode none
attr recordingmode count
attr source packetDropReasonIsNoCarrier(packetDropped)
attr title "packet drops: no carrier, count"
scalar rede02.nodo0.wlan packetDropNoCarrier:sum(packetBytes) 0
attr interpolationmode none
attr recordingmode sum(packetBytes)
attr source packetDropReasonIsNoCarrier(packetDropped)
attr title "packet drops: no carrier, sum(packetBytes)"
par rede02.nodo0.mobility typename "\"inet.mobility.static.StationaryMobility\""
par rede02.nodo0.mobility subjectModule "\"^\""
par rede02.nodo0.mobility coordinateSystemModule "\"\""
par rede02.nodo0.mobility displayStringTextFormat "\"p: %p\\nv: %v\""
attr mutable ""
par rede02.nodo0.mobility updateDisplayString true
par rede02.nodo0.mobility constraintAreaMinX "-inf m"
attr unit m
par rede02.nodo0.mobility constraintAreaMinY "-inf m"
attr unit m
par rede02.nodo0.mobility constraintAreaMinZ "-inf m"
attr unit m
par rede02.nodo0.mobility constraintAreaMaxX "inf m"
attr unit m
par rede02.nodo0.mobility constraintAreaMaxY "inf m"
attr unit m
par rede02.nodo0.mobility constraintAreaMaxZ "inf m"
attr unit m
par rede02.nodo0.mobility initialX 15m
attr unit m
par rede02.nodo0.mobility initialY 15m
attr unit m
par rede02.nodo0.mobility initialZ 2m
attr unit m
par rede02.nodo0.mobility initialLatitude "nan deg"
attr unit deg
par rede02.nodo0.mobility initialLongitude "nan deg"
attr unit deg
par rede02.nodo0.mobility initialAltitude 0m
attr unit m
par rede02.nodo0.mobility initialHeading 0deg
attr unit deg
par rede02.nodo0.mobility initialElevation 0deg
attr unit deg
par rede02.nodo0.mobility initialBank 0deg
attr unit deg
par rede02.nodo0.mobility initFromDisplayString true
par rede02.nodo0.mobility updateFromDisplayString true
par rede02.nodo0.energyStorage typename "\"inet.power.storage.SimpleEpEnergyStorage\""
par rede02.nodo0.energyStorage nominalCapacity 2J
attr unit J
par rede02.nodo0.energyStorage initialCapacity 2J
attr unit J
par rede02.nodo0.energyStorage printCapacityStep 0.02J
attr unit J
par rede02.nodo0.energyStorage displayStringTextFormat "\"%c (%p)\""
scalar rede02.nodo0.energyStorage residualEnergyCapacity:last 1.9901589148871
attr interpolationmode linear
attr recordingmode last
attr source residualEnergyCapacityChanged
attr title "Residual energy capacity, last"
attr unit J
par rede02.nodo0 typename "\"rssf01.Sensor\""
par rede02.nodo1.app typename "\"rssf01.Aplicacao\""
par rede02.nodo1.app numero 1
attr type int
par rede02.nodo1.app sink false
attr type bool
par rede02.nodo1.wlan.upperLayerIn.channel typename "\"ned.IdealChannel\""
par rede02.nodo1.wlan.radioIn.channel typename "\"ned.IdealChannel\""
par rede02.nodo1.wlan.mac.upperLayerOut.channel typename "\"ned.IdealChannel\""
par rede02.nodo1.wlan.queue typename "\"inet.queueing.queue.DropTailQueue\""
par rede02.nodo1.wlan.queue displayStringTextFormat "\"contains %p pk (%l) pushed %u\\npulled %o removed %r dropped %d\""
par rede02.nodo1.wlan.queue packetCapacity 100
par rede02.nodo1.wlan.queue dataCapacity -1b
attr unit b
par rede02.nodo1.wlan.queue dropperClass "\"inet::queueing::PacketAtCollectionEndDropper\""
par rede02.nodo1.wlan.queue comparatorClass "\"\""
par rede02.nodo1.wlan.queue bufferModule "\"\""
scalar rede02.nodo1.wlan.queue queueLength:last 0
attr autoWarmupFilter false
attr interpolationmode sample-hold
attr recordingmode last
attr source "warmup(atomic(constant0(packetPushEnded) + count(packetPushStarted) - count(packetPulled) - count(packetRemoved) - count(packetDropped)))"
attr title "queue length, last"
attr unit pk
scalar rede02.nodo1.wlan.queue queueLength:max 1
attr autoWarmupFilter false
attr interpolationmode sample-hold
attr recordingmode max
attr source "warmup(atomic(constant0(packetPushEnded) + count(packetPushStarted) - count(packetPulled) - count(packetRemoved) - count(packetDropped)))"
attr title "queue length, max"
attr unit pk
scalar rede02.nodo1.wlan.queue queueLength:timeavg 8.96e-05
attr autoWarmupFilter false
attr interpolationmode sample-hold
attr recordingmode timeavg
attr source "warmup(atomic(constant0(packetPushEnded) + count(packetPushStarted) - count(packetPulled) - count(packetRemoved) - count(packetDropped)))"
attr title "queue length, timeavg"
attr unit pk
scalar rede02.nodo1.wlan.queue queueBitLength:last 0
attr autoWarmupFilter false
attr interpolationmode sample-hold
attr recordingmode last
attr source "warmup(atomic(constant0(packetPushEnded) + sum(packetLength(packetPushStarted)) - sum(packetLength(packetPulled)) - sum(packetLength(packetRemoved)) - sum(packetLength(packetDropped))))"
attr title "queue bit length, last"
attr unit b
scalar rede02.nodo1.wlan.queue queueBitLength:max 0
attr autoWarmupFilter false
attr interpolationmode sample-hold
attr recordingmode max
attr source "warmup(atomic(constant0(packetPushEnded) + sum(packetLength(packetPushStarted)) - sum(packetLength(packetPulled)) - sum(packetLength(packetRemoved)) - sum(packetLength(packetDropped))))"
attr title "queue bit length, max"
attr unit b
scalar rede02.nodo1.wlan.queue queueBitLength:timeavg 0
attr autoWarmupFilter false
attr interpolationmode sample-hold
attr recordingmode timeavg
attr source "warmup(atomic(constant0(packetPushEnded) + sum(packetLength(packetPushStarted)) - sum(packetLength(packetPulled)) - sum(packetLength(packetRemoved)) - sum(packetLength(packetDropped))))"
attr title "queue bit length, timeavg"
attr unit b
statistic rede02.nodo1.wlan.queue queueingTime:histogram
field count 1
field mean 0.000448
field stddev nan
field min 0.000448
field max 0.000448
field sum 0.000448
field sqrsum 2.00704e-07
attr interpolationmode none
attr recordingmode histogram
attr source queueingTime(packetPulled)
attr title "queueing times"
attr unit s
bin	-inf	0
bin	0	1
bin	0.01	0
bin	0.02	0
bin	0.03	0
bin	0.04	0
bin	0.05	0
bin	0.06	0
bin	0.07	0
bin	0.08	0
bin	0.09	0
bin	0.1	0
bin	0.11	0
bin	0.12	0
bin	0.13	0
bin	0.14	0
bin	0.15	0
bin	0.16	0
bin	0.17	0
bin	0.18	0
bin	0.19	0
bin	0.2	0
bin	0.21	0
bin	0.22	0
bin	0.23	0
bin	0.24	0
bin	0.25	0
bin	0.26	0
bin	0.27	0
bin	0.28	0
bin	0.29	0
bin	0.3	0
bin	0.31	0
bin	0.32	0
bin	0.33	0
bin	0.34	0
bin	0.35	0
bin	0.36	0
bin	0.37	0
bin	0.38	0
bin	0.39	0
bin	0.4	0
bin	0.41	0
bin	0.42	0
bin	0.43	0
bin	0.44	0
bin	0.45	0
bin	0.46	0
bin	0.47	0
bin	0.48	0
bin	0.49	0
bin	0.5	0
bin	0.51	0
scalar rede02.nodo1.wlan.queue outgoingPackets:count 1
attr recordingmode count
attr source packetPulled
attr title "outgoing packets, count"
attr unit pk
scalar rede02.nodo1.wlan.queue outgoingPacketLengths:sum 0
attr interpolationmode none
attr recordingmode sum
attr source packetLength(packetPulled)
attr title "outgoing packet lengths, sum"
attr unit b
statistic rede02.nodo1.wlan.queue outgoingPacketLengths:histogram
field count 1
field mean 0
field stddev nan
field min 0
field max 0
field sum 0
field sqrsum 0
attr interpolationmode none
attr recordingmode histogram
attr source packetLength(packetPulled)
attr title "outgoing packet lengths"
attr unit b
bin	-inf	0
bin	-0.5	0
bin	-0.48	0
bin	-0.46	0
bin	-0.44	0
bin	-0.42	0
bin	-0.4	0
bin	-0.38	0
bin	-0.36	0
bin	-0.34	0
bin	-0.32	0
bin	-0.3	0
bin	-0.28	0
bin	-0.26	0
bin	-0.24	0
bin	-0.22	0
bin	-0.2	0
bin	-0.18	0
bin	-0.16	0
bin	-0.14	0
bin	-0.12	0
bin	-0.1	0
bin	-0.08	0
bin	-0.06	0
bin	-0.04	0
bin	-0.02	0
bin	0	1
bin	0.02	0
bin	0.04	0
bin	0.06	0
bin	0.08	0
bin	0.1	0
bin	0.12	0
bin	0.14	0
bin	0.16	0
bin	0.18	0
bin	0.2	0
bin	0.22	0
bin	0.24	0
bin	0.26	0
bin	0.28	0
bin	0.3	0
bin	0.32	0
bin	0.34	0
bin	0.36	0
bin	0.38	0
bin	0.4	0
bin	0.42	0
bin	0.44	0
bin	0.46	0
bin	0.48	0
bin	0.5	0
statistic rede02.nodo1.wlan.queue flowQueueingTime:histogram
field count 0
field mean nan
field stddev nan
field min nan
field max nan
field sum 0
field sqrsum 0
attr interpolationmode none
attr recordingmode histogram
attr source queueingTime(demuxFlow(packetPulled))
attr title "flow queueing times"
attr unit s
bin	-inf	0
bin	0	0
bin	1	0
scalar rede02.nodo1.wlan.queue incomingPackets:count 1
attr recordingmode count
attr source packetPushStarted
attr title "incoming packets, count"
attr unit pk
scalar rede02.nodo1.wlan.queue incomingPacketLengths:sum 0
attr interpolationmode none
attr recordingmode sum
attr source packetLength(packetPushStarted)
attr title "incoming packet lengths, sum"
attr unit b
statistic rede02.nodo1.wlan.queue incomingPacketLengths:histogram
field count 1
field mean 0
field stddev nan
field min 0
field max 0
field sum 0
field sqrsum 0
attr interpolationmode none
attr recordingmode histogram
attr source packetLength(packetPushStarted)
attr title "incoming packet lengths"
attr unit b
bin	-inf	0
bin	-0.5	0
bin	-0.48	0
bin	-0.46	0
bin	-0.44	0
bin	-0.42	0
bin	-0.4	0
bin	-0.38	0
bin	-0.36	0
bin	-0.34	0
bin	-0.32	0
bin	-0.3	0
bin	-0.28	0
bin	-0.26	0
bin	-0.24	0
bin	-0.22	0
bin	-0.2	0
bin	-0.18	0
bin	-0.16	0
bin	-0.14	0
bin	-0.12	0
bin	-0.1	0
bin	-0.08	0
bin	-0.06	0
bin	-0.04	0
bin	-0.02	0
bin	0	1
bin	0.02	0
bin	0.04	0
bin	0.06	0
bin	0.08	0
bin	0.1	0
bin	0.12	0
bin	0.14	0
bin	0.16	0
bin	0.18	0
bin	0.2	0
bin	0.22	0
bin	0.24	0
bin	0.26	0
bin	0.28	0
bin	0.3	0
bin	0.32	0
bin	0.34	0
bin	0.36	0
bin	0.38	0
bin	0.4	0
bin	0.42	0
bin	0.44	0
bin	0.46	0
bin	0.48	0
bin	0.5	0
scalar rede02.nodo1.wlan.queue droppedPacketsQueueOverflow:count 0
attr interpolationmode none
attr recordingmode count
attr source packetDropReasonIsQueueOverflow(packetDropped)
attr title "dropped packets: queue overflow, count"
attr unit pk
scalar rede02.nodo1.wlan.queue droppedPacketLengthsQueueOverflow:sum 0
attr interpolationmode none
attr recordingmode sum
attr source packetLength(packetDropReasonIsQueueOverflow(packetDropped))
attr title "dropped packet lengths: queue overflow, sum"
attr unit b
par rede02.nodo1.wlan.mac typename "\"inet.linklayer.ieee802154.Ieee802154NarrowbandMac\""
par rede02.nodo1.wlan.mac interfaceTableModule "\"\""
par rede02.nodo1.wlan.mac address "\"auto\""
attr mutable ""
par rede02.nodo1.wlan.mac headerLength 72b
attr unit b
par rede02.nodo1.wlan.mac mtu 118B
attr unit B
par rede02.nodo1.wlan.mac bitrate 250000bps
attr unit bps
par rede02.nodo1.wlan.mac ccaDetectionTime 0.000128s
attr unit s
par rede02.nodo1.wlan.mac rxSetupTime 0s
attr unit s
par rede02.nodo1.wlan.mac aTurnaroundTime 0.000192s
attr unit s
par rede02.nodo1.wlan.mac useMACAcks true
par rede02.nodo1.wlan.mac macMaxFrameRetries 3
par rede02.nodo1.wlan.mac macAckWaitDuration 0.00056s
attr unit s
par rede02.nodo1.wlan.mac ackLength 40b
attr unit b
par rede02.nodo1.wlan.mac sifs 0.000192s
attr unit s
par rede02.nodo1.wlan.mac backoffMethod "\"exponential\""
par rede02.nodo1.wlan.mac macMaxCSMABackoffs 4
par rede02.nodo1.wlan.mac aUnitBackoffPeriod 0.00032s
attr unit s
par rede02.nodo1.wlan.mac contentionWindow 2
par rede02.nodo1.wlan.mac macMinBE 3
par rede02.nodo1.wlan.mac macMaxBE 5
par rede02.nodo1.wlan.mac radioModule "\"^.radio\""
scalar rede02.nodo1.wlan.mac nbTxFrames 1
scalar rede02.nodo1.wlan.mac nbRxFrames 31
scalar rede02.nodo1.wlan.mac nbDroppedFrames 0
scalar rede02.nodo1.wlan.mac nbMissedAcks 0
scalar rede02.nodo1.wlan.mac nbRecvdAcks 0
scalar rede02.nodo1.wlan.mac nbTxAcks 0
scalar rede02.nodo1.wlan.mac nbDuplicates 0
scalar rede02.nodo1.wlan.mac meanBackoff 0.00032
scalar rede02.nodo1.wlan.mac nbBackoffs 1
scalar rede02.nodo1.wlan.mac backoffDurations 0.00032
scalar rede02.nodo1.wlan.mac packetDropNotAddressToUs:count 0
attr interpolationmode none
attr recordingmode count
attr source packetDropReasonIsNotAddressedToUs(packetDropped)
attr title "packet drop: not addressed to us, count"
scalar rede02.nodo1.wlan.mac packetDropNotAddressToUs:sum(packetBytes) 0
attr interpolationmode none
attr recordingmode sum(packetBytes)
attr source packetDropReasonIsNotAddressedToUs(packetDropped)
attr title "packet drop: not addressed to us, sum(packetBytes)"
scalar rede02.nodo1.wlan.mac packetDropIncorrectlyReceived:count 0
attr interpolationmode none
attr recordingmode count
attr source packetDropReasonIsIncorrectlyReceived(packetDropped)
attr title "packet drop: incorrectly received, count"
scalar rede02.nodo1.wlan.mac packetDropIncorrectlyReceived:sum(packetBytes) 0
attr interpolationmode none
attr recordingmode sum(packetBytes)
attr source packetDropReasonIsIncorrectlyReceived(packetDropped)
attr title "packet drop: incorrectly received, sum(packetBytes)"
scalar rede02.nodo1.wlan.mac packetDropQueueOverflow:count 0
attr interpolationmode none
attr recordingmode count
attr source packetDropReasonIsQueueOverflow(packetDropped)
attr title "packet drop: queue overflow, count"
scalar rede02.nodo1.wlan.mac packetDropQueueOverflow:sum(packetBytes) 0
attr interpolationmode none
attr recordingmode sum(packetBytes)
attr source packetDropReasonIsQueueOverflow(packetDropped)
attr title "packet drop: queue overflow, sum(packetBytes)"
scalar rede02.nodo1.wlan.mac packetDropRetryLimitReached:count 0
attr interpolationmode none
attr recordingmode count
attr source packetDropReasonIsRetryLimitReached(packetDropped)
attr title "packet drop: retry limit reached, count"
scalar rede02.nodo1.wlan.mac packetDropRetryLimitReached:sum(packetBytes) 0
attr interpolationmode none
attr recordingmode sum(packetBytes)
attr source packetDropReasonIsRetryLimitReached(packetDropped)
attr title "packet drop: retry limit reached, sum(packetBytes)"
scalar rede02.nodo1.wlan.mac packetDropBackoffLimitReached:count 0
attr interpolationmode none
attr recordingmode count
attr source packetDropReasonIsCongestion(packetDropped)
attr title "packet drop: backoff limit reached, count"
scalar rede02.nodo1.wlan.mac packetDropBackoffLimitReached:sum(packetBytes) 0
attr interpolationmode none
attr recordingmode sum(packetBytes)
attr source packetDropReasonIsCongestion(packetDropped)
attr title "packet drop: backoff limit reached, sum(packetBytes)"
scalar rede02.nodo1.wlan.mac linkBroken:count 0
attr interpolationmode none
attr recordingmode count
attr source linkBroken
attr title "link break, count"
par rede02.nodo1.wlan.radio.antenna typename "\"inet.physicallayer.wireless.common.antenna.IsotropicAntenna\""
par rede02.nodo1.wlan.radio.antenna mobilityModule "\"^.^.^.mobility\""
par rede02.nodo1.wlan.radio.antenna numAntennas 1
par rede02.nodo1.wlan.radio.transmitter typename "\"inet.physicallayer.wireless.ieee802154.packetlevel.Ieee802154NarrowbandScalarTransmitter\""
par rede02.nodo1.wlan.radio.transmitter preambleDuration 0.000128s
attr unit s
par rede02.nodo1.wlan.radio.transmitter headerLength 16b
attr unit b
par rede02.nodo1.wlan.radio.transmitter bitrate 250000bps
attr unit bps
par rede02.nodo1.wlan.radio.transmitter power 0.00224W
attr unit W
par rede02.nodo1.wlan.radio.transmitter centerFrequency 2.45e+09Hz
attr unit Hz
par rede02.nodo1.wlan.radio.transmitter bandwidth 2.8e+06Hz
attr unit Hz
par rede02.nodo1.wlan.radio.transmitter codeRate 1
par rede02.nodo1.wlan.radio.transmitter modulation "\"DSSS-OQPSK-16\""
par rede02.nodo1.wlan.radio.receiver.errorModel typename "\"inet.physicallayer.wireless.apsk.packetlevel.errormodel.ApskErrorModel\""
par rede02.nodo1.wlan.radio.receiver.errorModel corruptionMode "\"packet\""
attr enum packet,chunk,byte,bit
par rede02.nodo1.wlan.radio.receiver.errorModel snirMode "\"min\""
attr enum min,mean
par rede02.nodo1.wlan.radio.receiver.errorModel snirOffset 0dB
attr unit dB
par rede02.nodo1.wlan.radio.receiver typename "\"inet.physicallayer.wireless.ieee802154.packetlevel.Ieee802154NarrowbandScalarReceiver\""
par rede02.nodo1.wlan.radio.receiver snirThreshold -8dB
attr unit dB
par rede02.nodo1.wlan.radio.receiver snirThresholdMode "\"min\""
attr enum min,mean
par rede02.nodo1.wlan.radio.receiver energyDetection -90dBm
attr unit dBm
par rede02.nodo1.wlan.radio.receiver sensitivity -100dBm
attr unit dBm
par rede02.nodo1.wlan.radio.receiver centerFrequency 2.45e+09Hz
attr unit Hz
par rede02.nodo1.wlan.radio.receiver bandwidth 2.8e+06Hz
attr unit Hz
par rede02.nodo1.wlan.radio.receiver modulation "\"DSSS-OQPSK-16\""
par rede02.nodo1.wlan.radio.receiver minInterferencePower -120dBm
attr unit dBm
par rede02.nodo1.wlan.radio.energyConsumer typename "\"inet.physicallayer.wireless.common.energyconsumer.StateBasedEpEnergyConsumer\""
par rede02.nodo1.wlan.radio.energyConsumer energySourceModule "\"rede02.nodo1.wlan.^.energyStorage\""
par rede02.nodo1.wlan.radio.energyConsumer offPowerConsumption 0W
attr unit W
par rede02.nodo1.wlan.radio.energyConsumer sleepPowerConsumption 0.001W
attr unit W
par rede02.nodo1.wlan.radio.energyConsumer switchingPowerConsumption 0.001W
attr unit W
par rede02.nodo1.wlan.radio.energyConsumer receiverIdlePowerConsumption 0.002W
attr unit W
par rede02.nodo1.wlan.radio.energyConsumer receiverBusyPowerConsumption 0.005W
attr unit W
par rede02.nodo1.wlan.radio.energyConsumer receiverReceivingPowerConsumption 0.01W
attr unit W
par rede02.nodo1.wlan.radio.energyConsumer receiverReceivingPreamblePowerConsumption 0.01W
attr unit W
par rede02.nodo1.wlan.radio.energyConsumer receiverReceivingHeaderPowerConsumption 0.01W
attr unit W
par rede02.nodo1.wlan.radio.energyConsumer receiverReceivingDataPowerConsumption 0.01W
attr unit W
par rede02.nodo1.wlan.radio.energyConsumer transmitterIdlePowerConsumption 0.002W
attr unit W
par rede02.nodo1.wlan.radio.energyConsumer transmitterTransmittingPowerConsumption 0.1W
attr unit W
par rede02.nodo1.wlan.radio.energyConsumer transmitterTransmittingPreamblePowerConsumption 0.1W
attr unit W
par rede02.nodo1.wlan.radio.energyConsumer transmitterTransmittingHeaderPowerConsumption 0.1W
attr unit W
par rede02.nodo1.wlan.radio.energyConsumer transmitterTransmittingDataPowerConsumption 0.1W
attr unit W
par rede02.nodo1.wlan.radio typename "\"inet.physicallayer.wireless.ieee802154.packetlevel.Ieee802154NarrowbandScalarRadio\""
par rede02.nodo1.wlan.radio radioMediumModule "\"radioMedium\""
par rede02.nodo1.wlan.radio energySourceModule "\"rede02.nodo1.wlan.^.energyStorage\""
par rede02.nodo1.wlan.radio initialRadioMode "\"off\""
attr enum off,sleep,receiver,transmitter,transceiver
par rede02.nodo1.wlan.radio switchingTimes "\"ms 0 0 0 0 0 0 0 0 0 0 0 0 0 0 0 0 0 0 0 0 0 0 0 0 0\""
par rede02.nodo1.wlan.radio sendRawBytes false
par rede02.nodo1.wlan.radio separateTransmissionParts false
par rede02.nodo1.wlan.radio separateReceptionParts false
par rede02.nodo1.wlan.radio displayCommunicationRange false
par rede02.nodo1.wlan.radio displayInterferenceRange false
par rede02.nodo1.wlan.radio centerFrequency 2.45e+09Hz
attr unit Hz
par rede02.nodo1.wlan.radio bandwidth 2.8e+06Hz
attr unit Hz
par rede02.nodo1.wlan.radio signalAnalogRepresentation "\"scalar\""
attr enum scalar,dimensional
statistic rede02.nodo1.wlan.radio minSnir:histogram
field count 31
field mean 473.52783787635
field stddev 689.98586217916
field min 13.009012400779
field max 1823.6597820344
field sum 14679.362974167
field sqrsum 21233501.710773
attr recordingmode histogram
attr source minimumSnir(packetSentToUpper)
attr title "Min SNIR"
bin	-inf	0
bin	0	10
bin	50	1
bin	100	7
bin	150	4
bin	200	0
bin	250	0
bin	300	0
bin	350	0
bin	400	0
bin	450	0
bin	500	0
bin	550	3
bin	600	0
bin	650	0
bin	700	0
bin	750	0
bin	800	0
bin	850	0
bin	900	0
bin	950	0
bin	1000	0
bin	1050	0
bin	1100	0
bin	1150	0
bin	1200	0
bin	1250	0
bin	1300	0
bin	1350	0
bin	1400	0
bin	1450	0
bin	1500	0
bin	1550	0
bin	1600	0
bin	1650	0
bin	1700	0
bin	1750	0
bin	1800	6
bin	1850	0
bin	1900	0
bin	1950	0
bin	2000	0
bin	2050	0
bin	2100	0
bin	2150	0
bin	2200	0
bin	2250	0
bin	2300	0
statistic rede02.nodo1.wlan.radio packetErrorRate:histogram
field count 31
field mean 0
field stddev 0
field min 0
field max 0
field sum 0
field sqrsum 0
attr recordingmode histogram
attr source packetErrorRate(packetSentToUpper)
attr title "Packet error rate"
bin	-inf	0
bin	-0.5	0
bin	-0.48	0
bin	-0.46	0
bin	-0.44	0
bin	-0.42	0
bin	-0.4	0
bin	-0.38	0
bin	-0.36	0
bin	-0.34	0
bin	-0.32	0
bin	-0.3	0
bin	-0.28	0
bin	-0.26	0
bin	-0.24	0
bin	-0.22	0
bin	-0.2	0
bin	-0.18	0
bin	-0.16	0
bin	-0.14	0
bin	-0.12	0
bin	-0.1	0
bin	-0.08	0
bin	-0.06	0
bin	-0.04	0
bin	-0.02	0
bin	0	31
bin	0.02	0
bin	0.04	0
bin	0.06	0
bin	0.08	0
bin	0.1	0
bin	0.12	0
bin	0.14	0
bin	0.16	0
bin	0.18	0
bin	0.2	0
bin	0.22	0
bin	0.24	0
bin	0.26	0
bin	0.28	0
bin	0.3	0
bin	0.32	0
bin	0.34	0
bin	0.36	0
bin	0.38	0
bin	0.4	0
bin	0.42	0
bin	0.44	0
bin	0.46	0
bin	0.48	0
bin	0.5	0
statistic rede02.nodo1.wlan.radio bitErrorRate:histogram
field count 31
field mean 4.1046420579282e-58
field stddev 2.2853679772306e-57
field min 0
field max 1.2724390379577e-56
field sum 1.2724390379577e-56
field sqrsum 1.6191011053188e-112
attr recordingmode histogram
attr source bitErrorRate(packetSentToUpper)
attr title "Bit error rate"
bin	-inf	0
bin	0	30
bin	2e-58	0
bin	4e-58	0
bin	6e-58	0
bin	8e-58	0
bin	1e-57	0
bin	1.2e-57	0
bin	1.4e-57	0
bin	1.6e-57	0
bin	1.8e-57	0
bin	2e-57	0
bin	2.2e-57	0
bin	2.4e-57	0
bin	2.6e-57	0
bin	2.8e-57	0
bin	3e-57	0
bin	3.2e-57	0
bin	3.4e-57	0
bin	3.6e-57	0
bin	3.8e-57	0
bin	4e-57	0
bin	4.2e-57	0
bin	4.4e-57	0
bin	4.6e-57	0
bin	4.8e-57	0
bin	5e-57	0
bin	5.2e-57	0
bin	5.4e-57	0
bin	5.6e-57	0
bin	5.8e-57	0
bin	6e-57	0
bin	6.2e-57	0
bin	6.4e-57	0
bin	6.6e-57	0
bin	6.8e-57	0
bin	7e-57	0
bin	7.2e-57	0
bin	7.4e-57	0
bin	7.6e-57	0
bin	7.8e-57	0
bin	8e-57	0
bin	8.2e-57	0
bin	8.4e-57	0
bin	8.6e-57	0
bin	8.8e-57	0
bin	9e-57	0
bin	9.2e-57	0
bin	9.4e-57	0
bin	9.6e-57	0
bin	9.8e-57	0
bin	1e-56	0
bin	1.02e-56	0
bin	1.04e-56	0
bin	1.06e-56	0
bin	1.08e-56	0
bin	1.1e-56	0
bin	1.12e-56	0
bin	1.14e-56	0
bin	1.16e-56	0
bin	1.18e-56	0
bin	1.2e-56	0
bin	1.22e-56	0
bin	1.24e-56	0
bin	1.26e-56	1
bin	1.28e-56	0
bin	1.3e-56	0
bin	1.32e-56	0
bin	1.34e-56	0
bin	1.36e-56	0
bin	1.38e-56	0
bin	1.4e-56	0
bin	1.42e-56	0
bin	1.44e-56	0
bin	1.46e-56	0
bin	1.48e-56	0
bin	1.5e-56	0
bin	1.52e-56	0
bin	1.54e-56	0
bin	1.56e-56	0
bin	1.58e-56	0
bin	1.6e-56	0
statistic rede02.nodo1.wlan.radio symbolErrorRate:histogram
field count 0
field mean nan
field stddev nan
field min nan
field max nan
field sum 0
field sqrsum 0
attr recordingmode histogram
attr source symbolErrorRate(packetSentToUpper)
attr title "Symbol error rate"
bin	-inf	0
bin	0	0
bin	1	0
scalar rede02.nodo1.wlan.radio transmissionState:count 4
attr interpolationmode sample-hold
attr recordingmode count
attr source transmissionStateChanged
attr title "Radio transmission state, count"
scalar rede02.nodo1.wlan.radio receptionState:count 65
attr interpolationmode sample-hold
attr recordingmode count
attr source receptionStateChanged
attr title "Radio reception state, count"
scalar rede02.nodo1.wlan.radio radioMode:count 5
attr interpolationmode sample-hold
attr recordingmode count
attr source radioModeChanged
attr title "Radio mode, count"
par rede02.nodo1.wlan typename "\"inet.linklayer.ieee802154.Ieee802154NarrowbandInterface\""
par rede02.nodo1.wlan displayStringTextFormat "\"%a (%i)\\n%m\""
par rede02.nodo1.wlan recordPcap false
par rede02.nodo1.wlan numPcapRecorders 0
par rede02.nodo1.wlan interfaceTableModule "\"\""
par rede02.nodo1.wlan energySourceModule "\"^.energyStorage\""
scalar rede02.nodo1.wlan packetDropInterfaceDown:count 0
attr interpolationmode none
attr recordingmode count
attr source packetDropReasonIsInterfaceDown(packetDropped)
attr title "packet drops: interface down, count"
scalar rede02.nodo1.wlan packetDropInterfaceDown:sum(packetBytes) 0
attr interpolationmode none
attr recordingmode sum(packetBytes)
attr source packetDropReasonIsInterfaceDown(packetDropped)
attr title "packet drops: interface down, sum(packetBytes)"
scalar rede02.nodo1.wlan packetDropNoCarrier:count 0
attr interpolationmode none
attr recordingmode count
attr source packetDropReasonIsNoCarrier(packetDropped)
attr title "packet drops: no carrier, count"
scalar rede02.nodo1.wlan packetDropNoCarrier:sum(packetBytes) 0
attr interpolationmode none
attr recordingmode sum(packetBytes)
attr source packetDropReasonIsNoCarrier(packetDropped)
attr title "packet drops: no carrier, sum(packetBytes)"
par rede02.nodo1.mobility typename "\"inet.mobility.static.StationaryMobility\""
par rede02.nodo1.mobility subjectModule "\"^\""
par rede02.nodo1.mobility coordinateSystemModule "\"\""
par rede02.nodo1.mobility displayStringTextFormat "\"p: %p\\nv: %v\""
attr mutable ""
par rede02.nodo1.mobility updateDisplayString true
par rede02.nodo1.mobility constraintAreaMinX "-inf m"
attr unit m
par rede02.nodo1.mobility constraintAreaMinY "-inf m"
attr unit m
par rede02.nodo1.mobility constraintAreaMinZ "-inf m"
attr unit m
par rede02.nodo1.mobility constraintAreaMaxX "inf m"
attr unit m
par rede02.nodo1.mobility constraintAreaMaxY "inf m"
attr unit m
par rede02.nodo1.mobility constraintAreaMaxZ "inf m"
attr unit m
par rede02.nodo1.mobility initialX 30m
attr unit m
par rede02.nodo1.mobility initialY 15m
attr unit m
par rede02.nodo1.mobility initialZ 2m
attr unit m
par rede02.nodo1.mobility initialLatitude "nan deg"
attr unit deg
par rede02.nodo1.mobility initialLongitude "nan deg"
attr unit deg
par rede02.nodo1.mobility initialAltitude 0m
attr unit m
par rede02.nodo1.mobility initialHeading 0deg
attr unit deg
par rede02.nodo1.mobility initialElevation 0deg
attr unit deg
par rede02.nodo1.mobility initialBank 0deg
attr unit deg
par rede02.nodo1.mobility initFromDisplayString true
par rede02.nodo1.mobility updateFromDisplayString true
par rede02.nodo1.energyStorage typename "\"inet.power.storage.SimpleEpEnergyStorage\""
par rede02.nodo1.energyStorage nominalCapacity 2J
attr unit J
par rede02.nodo1.energyStorage initialCapacity 2J
attr unit J
par rede02.nodo1.energyStorage printCapacityStep 0.02J
attr unit J
par rede02.nodo1.energyStorage displayStringTextFormat "\"%c (%p)\""
scalar rede02.nodo1.energyStorage residualEnergyCapacity:last 1.9901589148871
attr interpolationmode linear
attr recordingmode last
attr source residualEnergyCapacityChanged
attr title "Residual energy capacity, last"
attr unit J
par rede02.nodo1 typename "\"rssf01.Sensor\""
par rede02.nodo2.app typename "\"rssf01.Aplicacao\""
par rede02.nodo2.app numero 2
attr type int
par rede02.nodo2.app sink false
attr type bool
par rede02.nodo2.wlan.upperLayerIn.channel typename "\"ned.IdealChannel\""
par rede02.nodo2.wlan.radioIn.channel typename "\"ned.IdealChannel\""
par rede02.nodo2.wlan.mac.upperLayerOut.channel typename "\"ned.IdealChannel\""
par rede02.nodo2.wlan.queue typename "\"inet.queueing.queue.DropTailQueue\""
par rede02.nodo2.wlan.queue displayStringTextFormat "\"contains %p pk (%l) pushed %u\\npulled %o removed %r dropped %d\""
par rede02.nodo2.wlan.queue packetCapacity 100
par rede02.nodo2.wlan.queue dataCapacity -1b
attr unit b
par rede02.nodo2.wlan.queue dropperClass "\"inet::queueing::PacketAtCollectionEndDropper\""
par rede02.nodo2.wlan.queue comparatorClass "\"\""
par rede02.nodo2.wlan.queue bufferModule "\"\""
scalar rede02.nodo2.wlan.queue queueLength:last 0
attr autoWarmupFilter false
attr interpolationmode sample-hold
attr recordingmode last
attr source "warmup(atomic(constant0(packetPushEnded) + count(packetPushStarted) - count(packetPulled) - count(packetRemoved) - count(packetDropped)))"
attr title "queue length, last"
attr unit pk
scalar rede02.nodo2.wlan.queue queueLength:max 1
attr autoWarmupFilter false
attr interpolationmode sample-hold
attr recordingmode max
attr source "warmup(atomic(constant0(packetPushEnded) + count(packetPushStarted) - count(packetPulled) - count(packetRemoved) - count(packetDropped)))"
attr title "queue length, max"
attr unit pk
scalar rede02.nodo2.wlan.queue queueLength:timeavg 0.0004992
attr autoWarmupFilter false
attr interpolationmode sample-hold
attr recordingmode timeavg
attr source "warmup(atomic(constant0(packetPushEnded) + count(packetPushStarted) - count(packetPulled) - count(packetRemoved) - count(packetDropped)))"
attr title "queue length, timeavg"
attr unit pk
scalar rede02.nodo2.wlan.queue queueBitLength:last 0
attr autoWarmupFilter false
attr interpolationmode sample-hold
attr recordingmode last
attr source "warmup(atomic(constant0(packetPushEnded) + sum(packetLength(packetPushStarted)) - sum(packetLength(packetPulled)) - sum(packetLength(packetRemoved)) - sum(packetLength(packetDropped))))"
attr title "queue bit length, last"
attr unit b
scalar rede02.nodo2.wlan.queue queueBitLength:max 0
attr autoWarmupFilter false
attr interpolationmode sample-hold
attr recordingmode max
attr source "warmup(atomic(constant0(packetPushEnded) + sum(packetLength(packetPushStarted)) - sum(packetLength(packetPulled)) - sum(packetLength(packetRemoved)) - sum(packetLength(packetDropped))))"
attr title "queue bit length, max"
attr unit b
scalar rede02.nodo2.wlan.queue queueBitLength:timeavg 0
attr autoWarmupFilter false
attr interpolationmode sample-hold
attr recordingmode timeavg
attr source "warmup(atomic(constant0(packetPushEnded) + sum(packetLength(packetPushStarted)) - sum(packetLength(packetPulled)) - sum(packetLength(packetRemoved)) - sum(packetLength(packetDropped))))"
attr title "queue bit length, timeavg"
attr unit b
statistic rede02.nodo2.wlan.queue queueingTime:histogram
field count 2
field mean 0.001248
field stddev 0.00022627416997969
field min 0.001088
field max 0.001408
field sum 0.002496
field sqrsum 3.166208e-06
attr interpolationmode none
attr recordingmode histogram
attr source queueingTime(packetPulled)
attr title "queueing times"
attr unit s
bin	-inf	0
bin	0.001	0
bin	0.00101	0
bin	0.00102	0
bin	0.00103	0
bin	0.00104	0
bin	0.00105	0
bin	0.00106	0
bin	0.00107	0
bin	0.00108	1
bin	0.00109	0
bin	0.0011	0
bin	0.00111	0
bin	0.00112	0
bin	0.00113	0
bin	0.00114	0
bin	0.00115	0
bin	0.00116	0
bin	0.00117	0
bin	0.00118	0
bin	0.00119	0
bin	0.0012	0
bin	0.00121	0
bin	0.00122	0
bin	0.00123	0
bin	0.00124	0
bin	0.00125	0
bin	0.00126	0
bin	0.00127	0
bin	0.00128	0
bin	0.00129	0
bin	0.0013	0
bin	0.00131	0
bin	0.00132	0
bin	0.00133	0
bin	0.00134	0
bin	0.00135	0
bin	0.00136	0
bin	0.00137	0
bin	0.00138	0
bin	0.00139	0
bin	0.0014	1
bin	0.00141	0
bin	0.00142	0
bin	0.00143	0
bin	0.00144	0
bin	0.00145	0
bin	0.00146	0
bin	0.00147	0
bin	0.00148	0
bin	0.00149	0
scalar rede02.nodo2.wlan.queue outgoingPackets:count 2
attr recordingmode count
attr source packetPulled
attr title "outgoing packets, count"
attr unit pk
scalar rede02.nodo2.wlan.queue outgoingPacketLengths:sum 0
attr interpolationmode none
attr recordingmode sum
attr source packetLength(packetPulled)
attr title "outgoing packet lengths, sum"
attr unit b
statistic rede02.nodo2.wlan.queue outgoingPacketLengths:histogram
field count 2
field mean 0
field stddev 0
field min 0
field max 0
field sum 0
field sqrsum 0
attr interpolationmode none
attr recordingmode histogram
attr source packetLength(packetPulled)
attr title "outgoing packet lengths"
attr unit b
bin	-inf	0
bin	-0.5	0
bin	-0.48	0
bin	-0.46	0
bin	-0.44	0
bin	-0.42	0
bin	-0.4	0
bin	-0.38	0
bin	-0.36	0
bin	-0.34	0
bin	-0.32	0
bin	-0.3	0
bin	-0.28	0
bin	-0.26	0
bin	-0.24	0
bin	-0.22	0
bin	-0.2	0
bin	-0.18	0
bin	-0.16	0
bin	-0.14	0
bin	-0.12	0
bin	-0.1	0
bin	-0.08	0
bin	-0.06	0
bin	-0.04	0
bin	-0.02	0
bin	0	2
bin	0.02	0
bin	0.04	0
bin	0.06	0
bin	0.08	0
bin	0.1	0
bin	0.12	0
bin	0.14	0
bin	0.16	0
bin	0.18	0
bin	0.2	0
bin	0.22	0
bin	0.24	0
bin	0.26	0
bin	0.28	0
bin	0.3	0
bin	0.32	0
bin	0.34	0
bin	0.36	0
bin	0.38	0
bin	0.4	0
bin	0.42	0
bin	0.44	0
bin	0.46	0
bin	0.48	0
bin	0.5	0
statistic rede02.nodo2.wlan.queue flowQueueingTime:histogram
field count 0
field mean nan
field stddev nan
field min nan
field max nan
field sum 0
field sqrsum 0
attr interpolationmode none
attr recordingmode histogram
attr source queueingTime(demuxFlow(packetPulled))
attr title "flow queueing times"
attr unit s
bin	-inf	0
bin	0	0
bin	1	0
scalar rede02.nodo2.wlan.queue incomingPackets:count 2
attr recordingmode count
attr source packetPushStarted
attr title "incoming packets, count"
attr unit pk
scalar rede02.nodo2.wlan.queue incomingPacketLengths:sum 0
attr interpolationmode none
attr recordingmode sum
attr source packetLength(packetPushStarted)
attr title "incoming packet lengths, sum"
attr unit b
statistic rede02.nodo2.wlan.queue incomingPacketLengths:histogram
field count 2
field mean 0
field stddev 0
field min 0
field max 0
field sum 0
field sqrsum 0
attr interpolationmode none
attr recordingmode histogram
attr source packetLength(packetPushStarted)
attr title "incoming packet lengths"
attr unit b
bin	-inf	0
bin	-0.5	0
bin	-0.48	0
bin	-0.46	0
bin	-0.44	0
bin	-0.42	0
bin	-0.4	0
bin	-0.38	0
bin	-0.36	0
bin	-0.34	0
bin	-0.32	0
bin	-0.3	0
bin	-0.28	0
bin	-0.26	0
bin	-0.24	0
bin	-0.22	0
bin	-0.2	0
bin	-0.18	0
bin	-0.16	0
bin	-0.14	0
bin	-0.12	0
bin	-0.1	0
bin	-0.08	0
bin	-0.06	0
bin	-0.04	0
bin	-0.02	0
bin	0	2
bin	0.02	0
bin	0.04	0
bin	0.06	0
bin	0.08	0
bin	0.1	0
bin	0.12	0
bin	0.14	0
bin	0.16	0
bin	0.18	0
bin	0.2	0
bin	0.22	0
bin	0.24	0
bin	0.26	0
bin	0.28	0
bin	0.3	0
bin	0.32	0
bin	0.34	0
bin	0.36	0
bin	0.38	0
bin	0.4	0
bin	0.42	0
bin	0.44	0
bin	0.46	0
bin	0.48	0
bin	0.5	0
scalar rede02.nodo2.wlan.queue droppedPacketsQueueOverflow:count 0
attr interpolationmode none
attr recordingmode count
attr source packetDropReasonIsQueueOverflow(packetDropped)
attr title "dropped packets: queue overflow, count"
attr unit pk
scalar rede02.nodo2.wlan.queue droppedPacketLengthsQueueOverflow:sum 0
attr interpolationmode none
attr recordingmode sum
attr source packetLength(packetDropReasonIsQueueOverflow(packetDropped))
attr title "dropped packet lengths: queue overflow, sum"
attr unit b
par rede02.nodo2.wlan.mac typename "\"inet.linklayer.ieee802154.Ieee802154NarrowbandMac\""
par rede02.nodo2.wlan.mac interfaceTableModule "\"\""
par rede02.nodo2.wlan.mac address "\"auto\""
attr mutable ""
par rede02.nodo2.wlan.mac headerLength 72b
attr unit b
par rede02.nodo2.wlan.mac mtu 118B
attr unit B
par rede02.nodo2.wlan.mac bitrate 250000bps
attr unit bps
par rede02.nodo2.wlan.mac ccaDetectionTime 0.000128s
attr unit s
par rede02.nodo2.wlan.mac rxSetupTime 0s
attr unit s
par rede02.nodo2.wlan.mac aTurnaroundTime 0.000192s
attr unit s
par rede02.nodo2.wlan.mac useMACAcks true
par rede02.nodo2.wlan.mac macMaxFrameRetries 3
par rede02.nodo2.wlan.mac macAckWaitDuration 0.00056s
attr unit s
par rede02.nodo2.wlan.mac ackLength 40b
attr unit b
par rede02.nodo2.wlan.mac sifs 0.000192s
attr unit s
par rede02.nodo2.wlan.mac backoffMethod "\"exponential\""
par rede02.nodo2.wlan.mac macMaxCSMABackoffs 4
par rede02.nodo2.wlan.mac aUnitBackoffPeriod 0.00032s
attr unit s
par rede02.nodo2.wlan.mac contentionWindow 2
par rede02.nodo2.wlan.mac macMinBE 3
par rede02.nodo2.wlan.mac macMaxBE 5
par rede02.nodo2.wlan.mac radioModule "\"^.radio\""
scalar rede02.nodo2.wlan.mac nbTxFrames 2
scalar rede02.nodo2.wlan.mac nbRxFrames 30
scalar rede02.nodo2.wlan.mac nbDroppedFrames 0
scalar rede02.nodo2.wlan.mac nbMissedAcks 0
scalar rede02.nodo2.wlan.mac nbRecvdAcks 0
scalar rede02.nodo2.wlan.mac nbTxAcks 0
scalar rede02.nodo2.wlan.mac nbDuplicates 0
scalar rede02.nodo2.wlan.mac meanBackoff 0.00112
scalar rede02.nodo2.wlan.mac nbBackoffs 2
scalar rede02.nodo2.wlan.mac backoffDurations 0.00224
scalar rede02.nodo2.wlan.mac packetDropNotAddressToUs:count 0
attr interpolationmode none
attr recordingmode count
attr source packetDropReasonIsNotAddressedToUs(packetDropped)
attr title "packet drop: not addressed to us, count"
scalar rede02.nodo2.wlan.mac packetDropNotAddressToUs:sum(packetBytes) 0
attr interpolationmode none
attr recordingmode sum(packetBytes)
attr source packetDropReasonIsNotAddressedToUs(packetDropped)
attr title "packet drop: not addressed to us, sum(packetBytes)"
scalar rede02.nodo2.wlan.mac packetDropIncorrectlyReceived:count 0
attr interpolationmode none
attr recordingmode count
attr source packetDropReasonIsIncorrectlyReceived(packetDropped)
attr title "packet drop: incorrectly received, count"
scalar rede02.nodo2.wlan.mac packetDropIncorrectlyReceived:sum(packetBytes) 0
attr interpolationmode none
attr recordingmode sum(packetBytes)
attr source packetDropReasonIsIncorrectlyReceived(packetDropped)
attr title "packet drop: incorrectly received, sum(packetBytes)"
scalar rede02.nodo2.wlan.mac packetDropQueueOverflow:count 0
attr interpolationmode none
attr recordingmode count
attr source packetDropReasonIsQueueOverflow(packetDropped)
attr title "packet drop: queue overflow, count"
scalar rede02.nodo2.wlan.mac packetDropQueueOverflow:sum(packetBytes) 0
attr interpolationmode none
attr recordingmode sum(packetBytes)
attr source packetDropReasonIsQueueOverflow(packetDropped)
attr title "packet drop: queue overflow, sum(packetBytes)"
scalar rede02.nodo2.wlan.mac packetDropRetryLimitReached:count 0
attr interpolationmode none
attr recordingmode count
attr source packetDropReasonIsRetryLimitReached(packetDropped)
attr title "packet drop: retry limit reached, count"
scalar rede02.nodo2.wlan.mac packetDropRetryLimitReached:sum(packetBytes) 0
attr interpolationmode none
attr recordingmode sum(packetBytes)
attr source packetDropReasonIsRetryLimitReached(packetDropped)
attr title "packet drop: retry limit reached, sum(packetBytes)"
scalar rede02.nodo2.wlan.mac packetDropBackoffLimitReached:count 0
attr interpolationmode none
attr recordingmode count
attr source packetDropReasonIsCongestion(packetDropped)
attr title "packet drop: backoff limit reached, count"
scalar rede02.nodo2.wlan.mac packetDropBackoffLimitReached:sum(packetBytes) 0
attr interpolationmode none
attr recordingmode sum(packetBytes)
attr source packetDropReasonIsCongestion(packetDropped)
attr title "packet drop: backoff limit reached, sum(packetBytes)"
scalar rede02.nodo2.wlan.mac linkBroken:count 0
attr interpolationmode none
attr recordingmode count
attr source linkBroken
attr title "link break, count"
par rede02.nodo2.wlan.radio.antenna typename "\"inet.physicallayer.wireless.common.antenna.IsotropicAntenna\""
par rede02.nodo2.wlan.radio.antenna mobilityModule "\"^.^.^.mobility\""
par rede02.nodo2.wlan.radio.antenna numAntennas 1
par rede02.nodo2.wlan.radio.transmitter typename "\"inet.physicallayer.wireless.ieee802154.packetlevel.Ieee802154NarrowbandScalarTransmitter\""
par rede02.nodo2.wlan.radio.transmitter preambleDuration 0.000128s
attr unit s
par rede02.nodo2.wlan.radio.transmitter headerLength 16b
attr unit b
par rede02.nodo2.wlan.radio.transmitter bitrate 250000bps
attr unit bps
par rede02.nodo2.wlan.radio.transmitter power 0.00224W
attr unit W
par rede02.nodo2.wlan.radio.transmitter centerFrequency 2.45e+09Hz
attr unit Hz
par rede02.nodo2.wlan.radio.transmitter bandwidth 2.8e+06Hz
attr unit Hz
par rede02.nodo2.wlan.radio.transmitter codeRate 1
par rede02.nodo2.wlan.radio.transmitter modulation "\"DSSS-OQPSK-16\""
par rede02.nodo2.wlan.radio.receiver.errorModel typename "\"inet.physicallayer.wireless.apsk.packetlevel.errormodel.ApskErrorModel\""
par rede02.nodo2.wlan.radio.receiver.errorModel corruptionMode "\"packet\""
attr enum packet,chunk,byte,bit
par rede02.nodo2.wlan.radio.receiver.errorModel snirMode "\"min\""
attr enum min,mean
par rede02.nodo2.wlan.radio.receiver.errorModel snirOffset 0dB
attr unit dB
par rede02.nodo2.wlan.radio.receiver typename "\"inet.physicallayer.wireless.ieee802154.packetlevel.Ieee802154NarrowbandScalarReceiver\""
par rede02.nodo2.wlan.radio.receiver snirThreshold -8dB
attr unit dB
par rede02.nodo2.wlan.radio.receiver snirThresholdMode "\"min\""
attr enum min,mean
par rede02.nodo2.wlan.radio.receiver energyDetection -90dBm
attr unit dBm
par rede02.nodo2.wlan.radio.receiver sensitivity -100dBm
attr unit dBm
par rede02.nodo2.wlan.radio.receiver centerFrequency 2.45e+09Hz
attr unit Hz
par rede02.nodo2.wlan.radio.receiver bandwidth 2.8e+06Hz
attr unit Hz
par rede02.nodo2.wlan.radio.receiver modulation "\"DSSS-OQPSK-16\""
par rede02.nodo2.wlan.radio.receiver minInterferencePower -120dBm
attr unit dBm
par rede02.nodo2.wlan.radio.energyConsumer typename "\"inet.physicallayer.wireless.common.energyconsumer.StateBasedEpEnergyConsumer\""
par rede02.nodo2.wlan.radio.energyConsumer energySourceModule "\"rede02.nodo2.wlan.^.energyStorage\""
par rede02.nodo2.wlan.radio.energyConsumer offPowerConsumption 0W
attr unit W
par rede02.nodo2.wlan.radio.energyConsumer sleepPowerConsumption 0.001W
attr unit W
par rede02.nodo2.wlan.radio.energyConsumer switchingPowerConsumption 0.001W
attr unit W
par rede02.nodo2.wlan.radio.energyConsumer receiverIdlePowerConsumption 0.002W
attr unit W
par rede02.nodo2.wlan.radio.energyConsumer receiverBusyPowerConsumption 0.005W
attr unit W
par rede02.nodo2.wlan.radio.energyConsumer receiverReceivingPowerConsumption 0.01W
attr unit W
par rede02.nodo2.wlan.radio.energyConsumer receiverReceivingPreamblePowerConsumption 0.01W
attr unit W
par rede02.nodo2.wlan.radio.energyConsumer receiverReceivingHeaderPowerConsumption 0.01W
attr unit W
par rede02.nodo2.wlan.radio.energyConsumer receiverReceivingDataPowerConsumption 0.01W
attr unit W
par rede02.nodo2.wlan.radio.energyConsumer transmitterIdlePowerConsumption 0.002W
attr unit W
par rede02.nodo2.wlan.radio.energyConsumer transmitterTransmittingPowerConsumption 0.1W
attr unit W
par rede02.nodo2.wlan.radio.energyConsumer transmitterTransmittingPreamblePowerConsumption 0.1W
attr unit W
par rede02.nodo2.wlan.radio.energyConsumer transmitterTransmittingHeaderPowerConsumption 0.1W
attr unit W
par rede02.nodo2.wlan.radio.energyConsumer transmitterTransmittingDataPowerConsumption 0.1W
attr unit W
par rede02.nodo2.wlan.radio typename "\"inet.physicallayer.wireless.ieee802154.packetlevel.Ieee802154NarrowbandScalarRadio\""
par rede02.nodo2.wlan.radio radioMediumModule "\"radioMedium\""
par rede02.nodo2.wlan.radio energySourceModule "\"rede02.nodo2.wlan.^.energyStorage\""
par rede02.nodo2.wlan.radio initialRadioMode "\"off\""
attr enum off,sleep,receiver,transmitter,transceiver
par rede02.nodo2.wlan.radio switchingTimes "\"ms 0 0 0 0 0 0 0 0 0 0 0 0 0 0 0 0 0 0 0 0 0 0 0 0 0\""
par rede02.nodo2.wlan.radio sendRawBytes false
par rede02.nodo2.wlan.radio separateTransmissionParts false
par rede02.nodo2.wlan.radio separateReceptionParts false
par rede02.nodo2.wlan.radio displayCommunicationRange false
par rede02.nodo2.wlan.radio displayInterferenceRange false
par rede02.nodo2.wlan.radio centerFrequency 2.45e+09Hz
attr unit Hz
par rede02.nodo2.wlan.radio bandwidth 2.8e+06Hz
attr unit Hz
par rede02.nodo2.wlan.radio signalAnalogRepresentation "\"scalar\""
attr enum scalar,dimensional
statistic rede02.nodo2.wlan.radio minSnir:histogram
field count 30
field mean 437.42484312206
field stddev 585.04892341109
field min 26.481177309729
field max 1823.6597820344
field sum 13122.745293662
field sqrsum 15666399.842161
attr recordingmode histogram
attr source minimumSnir(packetSentToUpper)
attr title "Min SNIR"
bin	-inf	0
bin	0	4
bin	50	3
bin	100	7
bin	150	6
bin	200	0
bin	250	0
bin	300	0
bin	350	0
bin	400	0
bin	450	0
bin	500	0
bin	550	6
bin	600	0
bin	650	0
bin	700	0
bin	750	0
bin	800	0
bin	850	0
bin	900	0
bin	950	0
bin	1000	0
bin	1050	0
bin	1100	0
bin	1150	0
bin	1200	0
bin	1250	0
bin	1300	0
bin	1350	0
bin	1400	0
bin	1450	0
bin	1500	0
bin	1550	0
bin	1600	0
bin	1650	0
bin	1700	0
bin	1750	0
bin	1800	4
bin	1850	0
bin	1900	0
bin	1950	0
bin	2000	0
bin	2050	0
bin	2100	0
bin	2150	0
bin	2200	0
bin	2250	0
bin	2300	0
statistic rede02.nodo2.wlan.radio packetErrorRate:histogram
field count 30
field mean 0
field stddev 0
field min 0
field max 0
field sum 0
field sqrsum 0
attr recordingmode histogram
attr source packetErrorRate(packetSentToUpper)
attr title "Packet error rate"
bin	-inf	0
bin	-0.5	0
bin	-0.48	0
bin	-0.46	0
bin	-0.44	0
bin	-0.42	0
bin	-0.4	0
bin	-0.38	0
bin	-0.36	0
bin	-0.34	0
bin	-0.32	0
bin	-0.3	0
bin	-0.28	0
bin	-0.26	0
bin	-0.24	0
bin	-0.22	0
bin	-0.2	0
bin	-0.18	0
bin	-0.16	0
bin	-0.14	0
bin	-0.12	0
bin	-0.1	0
bin	-0.08	0
bin	-0.06	0
bin	-0.04	0
bin	-0.02	0
bin	0	30
bin	0.02	0
bin	0.04	0
bin	0.06	0
bin	0.08	0
bin	0.1	0
bin	0.12	0
bin	0.14	0
bin	0.16	0
bin	0.18	0
bin	0.2	0
bin	0.22	0
bin	0.24	0
bin	0.26	0
bin	0.28	0
bin	0.3	0
bin	0.32	0
bin	0.34	0
bin	0.36	0
bin	0.38	0
bin	0.4	0
bin	0.42	0
bin	0.44	0
bin	0.46	0
bin	0.48	0
bin	0.5	0
statistic rede02.nodo2.wlan.radio bitErrorRate:histogram
field count 30
field mean 1.3141560459923e-116
field stddev 7.197929104718e-116
field min 0
field max 3.942468137977e-115
field sum 3.942468137977e-115
field sqrsum 1.5543055018964e-229
attr recordingmode histogram
attr source bitErrorRate(packetSentToUpper)
attr title "Bit error rate"
bin	-inf	0
bin	0	29
bin	1e-116	0
bin	2e-116	0
bin	3e-116	0
bin	4e-116	0
bin	5e-116	0
bin	6e-116	0
bin	7e-116	0
bin	8e-116	0
bin	9e-116	0
bin	1e-115	0
bin	1.1e-115	0
bin	1.2e-115	0
bin	1.3e-115	0
bin	1.4e-115	0
bin	1.5e-115	0
bin	1.6e-115	0
bin	1.7e-115	0
bin	1.8e-115	0
bin	1.9e-115	0
bin	2e-115	0
bin	2.1e-115	0
bin	2.2e-115	0
bin	2.3e-115	0
bin	2.4e-115	0
bin	2.5e-115	0
bin	2.6e-115	0
bin	2.7e-115	0
bin	2.8e-115	0
bin	2.9e-115	0
bin	3e-115	0
bin	3.1e-115	0
bin	3.2e-115	0
bin	3.3e-115	0
bin	3.4e-115	0
bin	3.5e-115	0
bin	3.6e-115	0
bin	3.7e-115	0
bin	3.8e-115	0
bin	3.9e-115	1
bin	4e-115	0
bin	4.1e-115	0
bin	4.2e-115	0
bin	4.3e-115	0
bin	4.4e-115	0
bin	4.5e-115	0
bin	4.6e-115	0
bin	4.7e-115	0
bin	4.8e-115	0
bin	4.9e-115	0
bin	5e-115	0
statistic rede02.nodo2.wlan.radio symbolErrorRate:histogram
field count 0
field mean nan
field stddev nan
field min nan
field max nan
field sum 0
field sqrsum 0
attr recordingmode histogram
attr source symbolErrorRate(packetSentToUpper)
attr title "Symbol error rate"
bin	-inf	0
bin	0	0
bin	1	0
scalar rede02.nodo2.wlan.radio transmissionState:count 8
attr interpolationmode sample-hold
attr recordingmode count
attr source transmissionStateChanged
attr title "Radio transmission state, count"
scalar rede02.nodo2.wlan.radio receptionState:count 65
attr interpolationmode sample-hold
attr recordingmode count
attr source receptionStateChanged
attr title "Radio reception state, count"
scalar rede02.nodo2.wlan.radio radioMode:count 7
attr interpolationmode sample-hold
attr recordingmode count
attr source radioModeChanged
attr title "Radio mode, count"
par rede02.nodo2.wlan typename "\"inet.linklayer.ieee802154.Ieee802154NarrowbandInterface\""
par rede02.nodo2.wlan displayStringTextFormat "\"%a (%i)\\n%m\""
par rede02.nodo2.wlan recordPcap false
par rede02.nodo2.wlan numPcapRecorders 0
par rede02.nodo2.wlan interfaceTableModule "\"\""
par rede02.nodo2.wlan energySourceModule "\"^.energyStorage\""
scalar rede02.nodo2.wlan packetDropInterfaceDown:count 0
attr interpolationmode none
attr recordingmode count
attr source packetDropReasonIsInterfaceDown(packetDropped)
attr title "packet drops: interface down, count"
scalar rede02.nodo2.wlan packetDropInterfaceDown:sum(packetBytes) 0
attr interpolationmode none
attr recordingmode sum(packetBytes)
attr source packetDropReasonIsInterfaceDown(packetDropped)
attr title "packet drops: interface down, sum(packetBytes)"
scalar rede02.nodo2.wlan packetDropNoCarrier:count 0
attr interpolationmode none
attr recordingmode count
attr source packetDropReasonIsNoCarrier(packetDropped)
attr title "packet drops: no carrier, count"
scalar rede02.nodo2.wlan packetDropNoCarrier:sum(packetBytes) 0
attr interpolationmode none
attr recordingmode sum(packetBytes)
attr source packetDropReasonIsNoCarrier(packetDropped)
attr title "packet drops: no carrier, sum(packetBytes)"
par rede02.nodo2.mobility typename "\"inet.mobility.static.StationaryMobility\""
par rede02.nodo2.mobility subjectModule "\"^\""
par rede02.nodo2.mobility coordinateSystemModule "\"\""
par rede02.nodo2.mobility displayStringTextFormat "\"p: %p\\nv: %v\""
attr mutable ""
par rede02.nodo2.mobility updateDisplayString true
par rede02.nodo2.mobility constraintAreaMinX "-inf m"
attr unit m
par rede02.nodo2.mobility constraintAreaMinY "-inf m"
attr unit m
par rede02.nodo2.mobility constraintAreaMinZ "-inf m"
attr unit m
par rede02.nodo2.mobility constraintAreaMaxX "inf m"
attr unit m
par rede02.nodo2.mobility constraintAreaMaxY "inf m"
attr unit m
par rede02.nodo2.mobility constraintAreaMaxZ "inf m"
attr unit m
par rede02.nodo2.mobility initialX 45m
attr unit m
par rede02.nodo2.mobility initialY 15m
attr unit m
par rede02.nodo2.mobility initialZ 2m
attr unit m
par rede02.nodo2.mobility initialLatitude "nan deg"
attr unit deg
par rede02.nodo2.mobility initialLongitude "nan deg"
attr unit deg
par rede02.nodo2.mobility initialAltitude 0m
attr unit m
par rede02.nodo2.mobility initialHeading 0deg
attr unit deg
par rede02.nodo2.mobility initialElevation 0deg
attr unit deg
par rede02.nodo2.mobility initialBank 0deg
attr unit deg
par rede02.nodo2.mobility initFromDisplayString true
par rede02.nodo2.mobility updateFromDisplayString true
par rede02.nodo2.energyStorage typename "\"inet.power.storage.SimpleEpEnergyStorage\""
par rede02.nodo2.energyStorage nominalCapacity 2J
attr unit J
par rede02.nodo2.energyStorage initialCapacity 2J
attr unit J
par rede02.nodo2.energyStorage printCapacityStep 0.02J
attr unit J
par rede02.nodo2.energyStorage displayStringTextFormat "\"%c (%p)\""
scalar rede02.nodo2.energyStorage residualEnergyCapacity:last 1.9901157148871
attr interpolationmode linear
attr recordingmode last
attr source residualEnergyCapacityChanged
attr title "Residual energy capacity, last"
attr unit J
par rede02.nodo2 typename "\"rssf01.Sensor\""
par rede02.nodo3.app typename "\"rssf01.Aplicacao\""
par rede02.nodo3.app numero 3
attr type int
par rede02.nodo3.app sink false
attr type bool
par rede02.nodo3.wlan.upperLayerIn.channel typename "\"ned.IdealChannel\""
par rede02.nodo3.wlan.radioIn.channel typename "\"ned.IdealChannel\""
par rede02.nodo3.wlan.mac.upperLayerOut.channel typename "\"ned.IdealChannel\""
par rede02.nodo3.wlan.queue typename "\"inet.queueing.queue.DropTailQueue\""
par rede02.nodo3.wlan.queue displayStringTextFormat "\"contains %p pk (%l) pushed %u\\npulled %o removed %r dropped %d\""
par rede02.nodo3.wlan.queue packetCapacity 100
par rede02.nodo3.wlan.queue dataCapacity -1b
attr unit b
par rede02.nodo3.wlan.queue dropperClass "\"inet::queueing::PacketAtCollectionEndDropper\""
par rede02.nodo3.wlan.queue comparatorClass "\"\""
par rede02.nodo3.wlan.queue bufferModule "\"\""
scalar rede02.nodo3.wlan.queue queueLength:last 0
attr autoWarmupFilter false
attr interpolationmode sample-hold
attr recordingmode last
attr source "warmup(atomic(constant0(packetPushEnded) + count(packetPushStarted) - count(packetPulled) - count(packetRemoved) - count(packetDropped)))"
attr title "queue length, last"
attr unit pk
scalar rede02.nodo3.wlan.queue queueLength:max 1
attr autoWarmupFilter false
attr interpolationmode sample-hold
attr recordingmode max
attr source "warmup(atomic(constant0(packetPushEnded) + count(packetPushStarted) - count(packetPulled) - count(packetRemoved) - count(packetDropped)))"
attr title "queue length, max"
attr unit pk
scalar rede02.nodo3.wlan.queue queueLength:timeavg 0.0006272
attr autoWarmupFilter false
attr interpolationmode sample-hold
attr recordingmode timeavg
attr source "warmup(atomic(constant0(packetPushEnded) + count(packetPushStarted) - count(packetPulled) - count(packetRemoved) - count(packetDropped)))"
attr title "queue length, timeavg"
attr unit pk
scalar rede02.nodo3.wlan.queue queueBitLength:last 0
attr autoWarmupFilter false
attr interpolationmode sample-hold
attr recordingmode last
[...]
attr interpolationmode sample-hold
attr recordingmode timeavg
attr source "warmup(atomic(constant0(packetPushEnded) + count(packetPushStarted) - count(packetPulled) - count(packetRemoved) - count(packetDropped)))"
attr title "queue length, timeavg"
attr unit pk
scalar rede02.nodo18.wlan.queue queueBitLength:last 0
attr autoWarmupFilter false
attr interpolationmode sample-hold
attr recordingmode last
attr source "warmup(atomic(constant0(packetPushEnded) + sum(packetLength(packetPushStarted)) - sum(packetLength(packetPulled)) - sum(packetLength(packetRemoved)) - sum(packetLength(packetDropped))))"
attr title "queue bit length, last"
attr unit b
scalar rede02.nodo18.wlan.queue queueBitLength:max 0
attr autoWarmupFilter false
attr interpolationmode sample-hold
attr recordingmode max
attr source "warmup(atomic(constant0(packetPushEnded) + sum(packetLength(packetPushStarted)) - sum(packetLength(packetPulled)) - sum(packetLength(packetRemoved)) - sum(packetLength(packetDropped))))"
attr title "queue bit length, max"
attr unit b
scalar rede02.nodo18.wlan.queue queueBitLength:timeavg 0
attr autoWarmupFilter false
attr interpolationmode sample-hold
attr recordingmode timeavg
attr source "warmup(atomic(constant0(packetPushEnded) + sum(packetLength(packetPushStarted)) - sum(packetLength(packetPulled)) - sum(packetLength(packetRemoved)) - sum(packetLength(packetDropped))))"
attr title "queue bit length, timeavg"
attr unit b
statistic rede02.nodo18.wlan.queue queueingTime:histogram
field count 0
field mean nan
field stddev nan
field min nan
field max nan
field sum 0
field sqrsum 0
attr interpolationmode none
attr recordingmode histogram
attr source queueingTime(packetPulled)
attr title "queueing times"
attr unit s
bin	-inf	0
bin	0	0
bin	1	0
scalar rede02.nodo18.wlan.queue outgoingPackets:count 0
attr recordingmode count
attr source packetPulled
attr title "outgoing packets, count"
attr unit pk
scalar rede02.nodo18.wlan.queue outgoingPacketLengths:sum 0
attr interpolationmode none
attr recordingmode sum
attr source packetLength(packetPulled)
attr title "outgoing packet lengths, sum"
attr unit b
statistic rede02.nodo18.wlan.queue outgoingPacketLengths:histogram
field count 0
field mean nan
field stddev nan
field min nan
field max nan
field sum 0
field sqrsum 0
attr interpolationmode none
attr recordingmode histogram
attr source packetLength(packetPulled)
attr title "outgoing packet lengths"
attr unit b
bin	-inf	0
bin	0	0
bin	1	0
statistic rede02.nodo18.wlan.queue flowQueueingTime:histogram
field count 0
field mean nan
field stddev nan
field min nan
field max nan
field sum 0
field sqrsum 0
attr interpolationmode none
attr recordingmode histogram
attr source queueingTime(demuxFlow(packetPulled))
attr title "flow queueing times"
attr unit s
bin	-inf	0
bin	0	0
bin	1	0
scalar rede02.nodo18.wlan.queue incomingPackets:count 0
attr recordingmode count
attr source packetPushStarted
attr title "incoming packets, count"
attr unit pk
scalar rede02.nodo18.wlan.queue incomingPacketLengths:sum 0
attr interpolationmode none
attr recordingmode sum
attr source packetLength(packetPushStarted)
attr title "incoming packet lengths, sum"
attr unit b
statistic rede02.nodo18.wlan.queue incomingPacketLengths:histogram
field count 0
field mean nan
field stddev nan
field min nan
field max nan
field sum 0
field sqrsum 0
attr interpolationmode none
attr recordingmode histogram
attr source packetLength(packetPushStarted)
attr title "incoming packet lengths"
attr unit b
bin	-inf	0
bin	0	0
bin	1	0
scalar rede02.nodo18.wlan.queue droppedPacketsQueueOverflow:count 0
attr interpolationmode none
attr recordingmode count
attr source packetDropReasonIsQueueOverflow(packetDropped)
attr title "dropped packets: queue overflow, count"
attr unit pk
scalar rede02.nodo18.wlan.queue droppedPacketLengthsQueueOverflow:sum 0
attr interpolationmode none
attr recordingmode sum
attr source packetLength(packetDropReasonIsQueueOverflow(packetDropped))
attr title "dropped packet lengths: queue overflow, sum"
attr unit b
par rede02.nodo18.wlan.mac typename "\"inet.linklayer.ieee802154.Ieee802154NarrowbandMac\""
par rede02.nodo18.wlan.mac interfaceTableModule "\"\""
par rede02.nodo18.wlan.mac address "\"auto\""
attr mutable ""
par rede02.nodo18.wlan.mac headerLength 72b
attr unit b
par rede02.nodo18.wlan.mac mtu 118B
attr unit B
par rede02.nodo18.wlan.mac bitrate 250000bps
attr unit bps
par rede02.nodo18.wlan.mac ccaDetectionTime 0.000128s
attr unit s
par rede02.nodo18.wlan.mac rxSetupTime 0s
attr unit s
par rede02.nodo18.wlan.mac aTurnaroundTime 0.000192s
attr unit s
par rede02.nodo18.wlan.mac useMACAcks true
par rede02.nodo18.wlan.mac macMaxFrameRetries 3
par rede02.nodo18.wlan.mac macAckWaitDuration 0.00056s
attr unit s
par rede02.nodo18.wlan.mac ackLength 40b
attr unit b
par rede02.nodo18.wlan.mac sifs 0.000192s
attr unit s
par rede02.nodo18.wlan.mac backoffMethod "\"exponential\""
par rede02.nodo18.wlan.mac macMaxCSMABackoffs 4
par rede02.nodo18.wlan.mac aUnitBackoffPeriod 0.00032s
attr unit s
par rede02.nodo18.wlan.mac contentionWindow 2
par rede02.nodo18.wlan.mac macMinBE 3
par rede02.nodo18.wlan.mac macMaxBE 5
par rede02.nodo18.wlan.mac radioModule "\"^.radio\""
scalar rede02.nodo18.wlan.mac nbTxFrames 0
scalar rede02.nodo18.wlan.mac nbRxFrames 32
scalar rede02.nodo18.wlan.mac nbDroppedFrames 0
scalar rede02.nodo18.wlan.mac nbMissedAcks 0
scalar rede02.nodo18.wlan.mac nbRecvdAcks 0
scalar rede02.nodo18.wlan.mac nbTxAcks 0
scalar rede02.nodo18.wlan.mac nbDuplicates 0
scalar rede02.nodo18.wlan.mac meanBackoff 0
scalar rede02.nodo18.wlan.mac nbBackoffs 0
scalar rede02.nodo18.wlan.mac backoffDurations 0
scalar rede02.nodo18.wlan.mac packetDropNotAddressToUs:count 0
attr interpolationmode none
attr recordingmode count
attr source packetDropReasonIsNotAddressedToUs(packetDropped)
attr title "packet drop: not addressed to us, count"
scalar rede02.nodo18.wlan.mac packetDropNotAddressToUs:sum(packetBytes) 0
attr interpolationmode none
attr recordingmode sum(packetBytes)
attr source packetDropReasonIsNotAddressedToUs(packetDropped)
attr title "packet drop: not addressed to us, sum(packetBytes)"
scalar rede02.nodo18.wlan.mac packetDropIncorrectlyReceived:count 0
attr interpolationmode none
attr recordingmode count
attr source packetDropReasonIsIncorrectlyReceived(packetDropped)
attr title "packet drop: incorrectly received, count"
scalar rede02.nodo18.wlan.mac packetDropIncorrectlyReceived:sum(packetBytes) 0
attr interpolationmode none
attr recordingmode sum(packetBytes)
attr source packetDropReasonIsIncorrectlyReceived(packetDropped)
attr title "packet drop: incorrectly received, sum(packetBytes)"
scalar rede02.nodo18.wlan.mac packetDropQueueOverflow:count 0
attr interpolationmode none
attr recordingmode count
attr source packetDropReasonIsQueueOverflow(packetDropped)
attr title "packet drop: queue overflow, count"
scalar rede02.nodo18.wlan.mac packetDropQueueOverflow:sum(packetBytes) 0
attr interpolationmode none
attr recordingmode sum(packetBytes)
attr source packetDropReasonIsQueueOverflow(packetDropped)
attr title "packet drop: queue overflow, sum(packetBytes)"
scalar rede02.nodo18.wlan.mac packetDropRetryLimitReached:count 0
attr interpolationmode none
attr recordingmode count
attr source packetDropReasonIsRetryLimitReached(packetDropped)
attr title "packet drop: retry limit reached, count"
scalar rede02.nodo18.wlan.mac packetDropRetryLimitReached:sum(packetBytes) 0
attr interpolationmode none
attr recordingmode sum(packetBytes)
attr source packetDropReasonIsRetryLimitReached(packetDropped)
attr title "packet drop: retry limit reached, sum(packetBytes)"
scalar rede02.nodo18.wlan.mac packetDropBackoffLimitReached:count 0
attr interpolationmode none
attr recordingmode count
attr source packetDropReasonIsCongestion(packetDropped)
attr title "packet drop: backoff limit reached, count"
scalar rede02.nodo18.wlan.mac packetDropBackoffLimitReached:sum(packetBytes) 0
attr interpolationmode none
attr recordingmode sum(packetBytes)
attr source packetDropReasonIsCongestion(packetDropped)
attr title "packet drop: backoff limit reached, sum(packetBytes)"
scalar rede02.nodo18.wlan.mac linkBroken:count 0
attr interpolationmode none
attr recordingmode count
attr source linkBroken
attr title "link break, count"
par rede02.nodo18.wlan.radio.antenna typename "\"inet.physicallayer.wireless.common.antenna.IsotropicAntenna\""
par rede02.nodo18.wlan.radio.antenna mobilityModule "\"^.^.^.mobility\""
par rede02.nodo18.wlan.radio.antenna numAntennas 1
par rede02.nodo18.wlan.radio.transmitter typename "\"inet.physicallayer.wireless.ieee802154.packetlevel.Ieee802154NarrowbandScalarTransmitter\""
par rede02.nodo18.wlan.radio.transmitter preambleDuration 0.000128s
attr unit s
par rede02.nodo18.wlan.radio.transmitter headerLength 16b
attr unit b
par rede02.nodo18.wlan.radio.transmitter bitrate 250000bps
attr unit bps
par rede02.nodo18.wlan.radio.transmitter power 0.00224W
attr unit W
par rede02.nodo18.wlan.radio.transmitter centerFrequency 2.45e+09Hz
attr unit Hz
par rede02.nodo18.wlan.radio.transmitter bandwidth 2.8e+06Hz
attr unit Hz
par rede02.nodo18.wlan.radio.transmitter codeRate 1
par rede02.nodo18.wlan.radio.transmitter modulation "\"DSSS-OQPSK-16\""
par rede02.nodo18.wlan.radio.receiver.errorModel typename "\"inet.physicallayer.wireless.apsk.packetlevel.errormodel.ApskErrorModel\""
par rede02.nodo18.wlan.radio.receiver.errorModel corruptionMode "\"packet\""
attr enum packet,chunk,byte,bit
par rede02.nodo18.wlan.radio.receiver.errorModel snirMode "\"min\""
attr enum min,mean
par rede02.nodo18.wlan.radio.receiver.errorModel snirOffset 0dB
attr unit dB
par rede02.nodo18.wlan.radio.receiver typename "\"inet.physicallayer.wireless.ieee802154.packetlevel.Ieee802154NarrowbandScalarReceiver\""
par rede02.nodo18.wlan.radio.receiver snirThreshold -8dB
attr unit dB
par rede02.nodo18.wlan.radio.receiver snirThresholdMode "\"min\""
attr enum min,mean
par rede02.nodo18.wlan.radio.receiver energyDetection -90dBm
attr unit dBm
par rede02.nodo18.wlan.radio.receiver sensitivity -100dBm
attr unit dBm
par rede02.nodo18.wlan.radio.receiver centerFrequency 2.45e+09Hz
attr unit Hz
par rede02.nodo18.wlan.radio.receiver bandwidth 2.8e+06Hz
attr unit Hz
par rede02.nodo18.wlan.radio.receiver modulation "\"DSSS-OQPSK-16\""
par rede02.nodo18.wlan.radio.receiver minInterferencePower -120dBm
attr unit dBm
par rede02.nodo18.wlan.radio.energyConsumer typename "\"inet.physicallayer.wireless.common.energyconsumer.StateBasedEpEnergyConsumer\""
par rede02.nodo18.wlan.radio.energyConsumer energySourceModule "\"rede02.nodo18.wlan.^.energyStorage\""
par rede02.nodo18.wlan.radio.energyConsumer offPowerConsumption 0W
attr unit W
par rede02.nodo18.wlan.radio.energyConsumer sleepPowerConsumption 0.001W
attr unit W
par rede02.nodo18.wlan.radio.energyConsumer switchingPowerConsumption 0.001W
attr unit W
par rede02.nodo18.wlan.radio.energyConsumer receiverIdlePowerConsumption 0.002W
attr unit W
par rede02.nodo18.wlan.radio.energyConsumer receiverBusyPowerConsumption 0.005W
attr unit W
par rede02.nodo18.wlan.radio.energyConsumer receiverReceivingPowerConsumption 0.01W
attr unit W
par rede02.nodo18.wlan.radio.energyConsumer receiverReceivingPreamblePowerConsumption 0.01W
attr unit W
par rede02.nodo18.wlan.radio.energyConsumer receiverReceivingHeaderPowerConsumption 0.01W
attr unit W
par rede02.nodo18.wlan.radio.energyConsumer receiverReceivingDataPowerConsumption 0.01W
attr unit W
par rede02.nodo18.wlan.radio.energyConsumer transmitterIdlePowerConsumption 0.002W
attr unit W
par rede02.nodo18.wlan.radio.energyConsumer transmitterTransmittingPowerConsumption 0.1W
attr unit W
par rede02.nodo18.wlan.radio.energyConsumer transmitterTransmittingPreamblePowerConsumption 0.1W
attr unit W
par rede02.nodo18.wlan.radio.energyConsumer transmitterTransmittingHeaderPowerConsumption 0.1W
attr unit W
par rede02.nodo18.wlan.radio.energyConsumer transmitterTransmittingDataPowerConsumption 0.1W
attr unit W
par rede02.nodo18.wlan.radio typename "\"inet.physicallayer.wireless.ieee802154.packetlevel.Ieee802154NarrowbandScalarRadio\""
par rede02.nodo18.wlan.radio radioMediumModule "\"radioMedium\""
par rede02.nodo18.wlan.radio energySourceModule "\"rede02.nodo18.wlan.^.energyStorage\""
par rede02.nodo18.wlan.radio initialRadioMode "\"off\""
attr enum off,sleep,receiver,transmitter,transceiver
par rede02.nodo18.wlan.radio switchingTimes "\"ms 0 0 0 0 0 0 0 0 0 0 0 0 0 0 0 0 0 0 0 0 0 0 0 0 0\""
par rede02.nodo18.wlan.radio sendRawBytes false
par rede02.nodo18.wlan.radio separateTransmissionParts false
par rede02.nodo18.wlan.radio separateReceptionParts false
par rede02.nodo18.wlan.radio displayCommunicationRange false
par rede02.nodo18.wlan.radio displayInterferenceRange false
par rede02.nodo18.wlan.radio centerFrequency 2.45e+09Hz
attr unit Hz
par rede02.nodo18.wlan.radio bandwidth 2.8e+06Hz
attr unit Hz
par rede02.nodo18.wlan.radio signalAnalogRepresentation "\"scalar\""
attr enum scalar,dimensional
statistic rede02.nodo18.wlan.radio minSnir:histogram
field count 32
field mean 2110.2681098228
field stddev 5035.8747716338
field min 33.615699939994
field max 17447.190039651
field sum 67528.579514329
field sqrsum 928664484.03364
attr recordingmode histogram
attr source minimumSnir(packetSentToUpper)
attr title "Min SNIR"
bin	-inf	0
bin	0	20
bin	500	0
bin	1000	9
bin	1500	0
bin	2000	0
bin	2500	0
bin	3000	0
bin	3500	0
bin	4000	0
bin	4500	0
bin	5000	0
bin	5500	0
bin	6000	0
bin	6500	0
bin	7000	0
bin	7500	0
bin	8000	0
bin	8500	0
bin	9000	0
bin	9500	0
bin	10000	0
bin	10500	0
bin	11000	0
bin	11500	0
bin	12000	0
bin	12500	0
bin	13000	0
bin	13500	0
bin	14000	0
bin	14500	0
bin	15000	0
bin	15500	0
bin	16000	0
bin	16500	0
bin	17000	3
bin	17500	0
bin	18000	0
bin	18500	0
bin	19000	0
bin	19500	0
bin	20000	0
bin	20500	0
bin	21000	0
bin	21500	0
bin	22000	0
statistic rede02.nodo18.wlan.radio packetErrorRate:histogram
field count 32
field mean 0
field stddev 0
field min 0
field max 0
field sum 0
field sqrsum 0
attr recordingmode histogram
attr source packetErrorRate(packetSentToUpper)
attr title "Packet error rate"
bin	-inf	0
bin	-0.5	0
bin	-0.48	0
bin	-0.46	0
bin	-0.44	0
bin	-0.42	0
bin	-0.4	0
bin	-0.38	0
bin	-0.36	0
bin	-0.34	0
bin	-0.32	0
bin	-0.3	0
bin	-0.28	0
bin	-0.26	0
bin	-0.24	0
bin	-0.22	0
bin	-0.2	0
bin	-0.18	0
bin	-0.16	0
bin	-0.14	0
bin	-0.12	0
bin	-0.1	0
bin	-0.08	0
bin	-0.06	0
bin	-0.04	0
bin	-0.02	0
bin	0	32
bin	0.02	0
bin	0.04	0
bin	0.06	0
bin	0.08	0
bin	0.1	0
bin	0.12	0
bin	0.14	0
bin	0.16	0
bin	0.18	0
bin	0.2	0
bin	0.22	0
bin	0.24	0
bin	0.26	0
bin	0.28	0
bin	0.3	0
bin	0.32	0
bin	0.34	0
bin	0.36	0
bin	0.38	0
bin	0.4	0
bin	0.42	0
bin	0.44	0
bin	0.46	0
bin	0.48	0
bin	0.5	0
statistic rede02.nodo18.wlan.radio bitErrorRate:histogram
field count 32
field mean 1.2757927224487e-147
field stddev 7.2169734834553e-147
field min 0
field max 4.0825367118358e-146
field sum 4.0825367118358e-146
field sqrsum 1.6667106003487e-291
attr recordingmode histogram
attr source bitErrorRate(packetSentToUpper)
attr title "Bit error rate"
bin	-inf	0
bin	0	31
bin	1e-147	0
bin	2e-147	0
bin	3e-147	0
bin	4e-147	0
bin	5e-147	0
bin	6e-147	0
bin	7e-147	0
bin	8e-147	0
bin	9e-147	0
bin	1e-146	0
bin	1.1e-146	0
bin	1.2e-146	0
bin	1.3e-146	0
bin	1.4e-146	0
bin	1.5e-146	0
bin	1.6e-146	0
bin	1.7e-146	0
bin	1.8e-146	0
bin	1.9e-146	0
bin	2e-146	0
bin	2.1e-146	0
bin	2.2e-146	0
bin	2.3e-146	0
bin	2.4e-146	0
bin	2.5e-146	0
bin	2.6e-146	0
bin	2.7e-146	0
bin	2.8e-146	0
bin	2.9e-146	0
bin	3e-146	0
bin	3.1e-146	0
bin	3.2e-146	0
bin	3.3e-146	0
bin	3.4e-146	0
bin	3.5e-146	0
bin	3.6e-146	0
bin	3.7e-146	0
bin	3.8e-146	0
bin	3.9e-146	0
bin	4e-146	1
bin	4.1e-146	0
bin	4.2e-146	0
bin	4.3e-146	0
bin	4.4e-146	0
bin	4.5e-146	0
bin	4.6e-146	0
bin	4.7e-146	0
bin	4.8e-146	0
bin	4.9e-146	0
bin	5e-146	0
bin	5.1e-146	0
bin	5.2e-146	0
statistic rede02.nodo18.wlan.radio symbolErrorRate:histogram
field count 0
field mean nan
field stddev nan
field min nan
field max nan
field sum 0
field sqrsum 0
attr recordingmode histogram
attr source symbolErrorRate(packetSentToUpper)
attr title "Symbol error rate"
bin	-inf	0
bin	0	0
bin	1	0
scalar rede02.nodo18.wlan.radio transmissionState:count 0
attr interpolationmode sample-hold
attr recordingmode count
attr source transmissionStateChanged
attr title "Radio transmission state, count"
scalar rede02.nodo18.wlan.radio receptionState:count 65
attr interpolationmode sample-hold
attr recordingmode count
attr source receptionStateChanged
attr title "Radio reception state, count"
scalar rede02.nodo18.wlan.radio radioMode:count 3
attr interpolationmode sample-hold
attr recordingmode count
attr source radioModeChanged
attr title "Radio mode, count"
par rede02.nodo18.wlan typename "\"inet.linklayer.ieee802154.Ieee802154NarrowbandInterface\""
par rede02.nodo18.wlan displayStringTextFormat "\"%a (%i)\\n%m\""
par rede02.nodo18.wlan recordPcap false
par rede02.nodo18.wlan numPcapRecorders 0
par rede02.nodo18.wlan interfaceTableModule "\"\""
par rede02.nodo18.wlan energySourceModule "\"^.energyStorage\""
scalar rede02.nodo18.wlan packetDropInterfaceDown:count 0
attr interpolationmode none
attr recordingmode count
attr source packetDropReasonIsInterfaceDown(packetDropped)
attr title "packet drops: interface down, count"
scalar rede02.nodo18.wlan packetDropInterfaceDown:sum(packetBytes) 0
attr interpolationmode none
attr recordingmode sum(packetBytes)
attr source packetDropReasonIsInterfaceDown(packetDropped)
attr title "packet drops: interface down, sum(packetBytes)"
scalar rede02.nodo18.wlan packetDropNoCarrier:count 0
attr interpolationmode none
attr recordingmode count
attr source packetDropReasonIsNoCarrier(packetDropped)
attr title "packet drops: no carrier, count"
scalar rede02.nodo18.wlan packetDropNoCarrier:sum(packetBytes) 0
attr interpolationmode none
attr recordingmode sum(packetBytes)
attr source packetDropReasonIsNoCarrier(packetDropped)
attr title "packet drops: no carrier, sum(packetBytes)"
par rede02.nodo18.mobility typename "\"inet.mobility.static.StationaryMobility\""
par rede02.nodo18.mobility subjectModule "\"^\""
par rede02.nodo18.mobility coordinateSystemModule "\"\""
par rede02.nodo18.mobility displayStringTextFormat "\"p: %p\\nv: %v\""
attr mutable ""
par rede02.nodo18.mobility updateDisplayString true
par rede02.nodo18.mobility constraintAreaMinX "-inf m"
attr unit m
par rede02.nodo18.mobility constraintAreaMinY "-inf m"
attr unit m
par rede02.nodo18.mobility constraintAreaMinZ "-inf m"
attr unit m
par rede02.nodo18.mobility constraintAreaMaxX "inf m"
attr unit m
par rede02.nodo18.mobility constraintAreaMaxY "inf m"
attr unit m
par rede02.nodo18.mobility constraintAreaMaxZ "inf m"
attr unit m
par rede02.nodo18.mobility initialX 45m
attr unit m
par rede02.nodo18.mobility initialY 22.5m
attr unit m
par rede02.nodo18.mobility initialZ 2m
attr unit m
par rede02.nodo18.mobility initialLatitude "nan deg"
attr unit deg
par rede02.nodo18.mobility initialLongitude "nan deg"
attr unit deg
par rede02.nodo18.mobility initialAltitude 0m
attr unit m
par rede02.nodo18.mobility initialHeading 0deg
attr unit deg
par rede02.nodo18.mobility initialElevation 0deg
attr unit deg
par rede02.nodo18.mobility initialBank 0deg
attr unit deg
par rede02.nodo18.mobility initFromDisplayString true
par rede02.nodo18.mobility updateFromDisplayString true
par rede02.nodo18.energyStorage typename "\"inet.power.storage.SimpleEpEnergyStorage\""
par rede02.nodo18.energyStorage nominalCapacity 2J
attr unit J
par rede02.nodo18.energyStorage initialCapacity 2J
attr unit J
par rede02.nodo18.energyStorage printCapacityStep 0.02J
attr unit J
par rede02.nodo18.energyStorage displayStringTextFormat "\"%c (%p)\""
scalar rede02.nodo18.energyStorage residualEnergyCapacity:last 1.9902021148871
attr interpolationmode linear
attr recordingmode last
attr source residualEnergyCapacityChanged
attr title "Residual energy capacity, last"
attr unit J
par rede02.nodo18 typename "\"rssf01.Sensor\""
par rede02 typename "\"rssf01.simulations.rede02\""

