version 3
run General-0-20231201-14:35:40-15372
attr configname General
attr datetime 20231201-14:35:40
attr datetimef 20231201-143540
attr experiment General
attr inifile rede2.ini
attr iterationvars ""
attr iterationvarsd ""
attr iterationvarsf ""
attr measurement ""
attr network rede02
attr processid 15372
attr repetition 0
attr replication #0
attr resultdir results
attr runnumber 0
attr seedset 0
config image-path ../../inet4.5/images
config network rede02
config sim-time-limit 5s
config *.*.wlan.interfaceTableModule "\"\""
config *.nodo*.energyStorage.nominalCapacity 2J
config *.*.wlan.radio.energyConsumer.typename StateBasedEpEnergyConsumer
config *.*.wlan.radio.energyConsumer.sleepPowerConsumption 1mW
config *.*.wlan.radio.energyConsumer.receiverIdlePowerConsumption 2mW
config *.*.wlan.radio.energyConsumer.receiverBusyPowerConsumption 5mW
config *.*.wlan.radio.energyConsumer.receiverReceivingPowerConsumption 10mW
config *.*.wlan.radio.energyConsumer.transmitterIdlePowerConsumption 2mW
config *.*.wlan.radio.energyConsumer.transmitterTransmittingPowerConsumption 100mW
config *.nodo0.mobility.initialX 15m
config *.nodo0.mobility.initialY 15m
config *.nodo0.mobility.initialZ 2m
config *.nodo1.mobility.initialX 30m
config *.nodo1.mobility.initialY 15m
config *.nodo1.mobility.initialZ 2m
config *.nodo2.mobility.initialX 45m
config *.nodo2.mobility.initialY 15m
config *.nodo2.mobility.initialZ 2m
config *.nodo3.mobility.initialX 15m
config *.nodo3.mobility.initialY 30m
config *.nodo3.mobility.initialZ 2m
config *.nodo4.mobility.initialX 30m
config *.nodo4.mobility.initialY 30m
config *.nodo4.mobility.initialZ 2m
config *.nodo5.mobility.initialX 45m
config *.nodo5.mobility.initialY 30m
config *.nodo5.mobility.initialZ 2m
config *.nodo6.mobility.initialX 15m
config *.nodo6.mobility.initialY 45m
config *.nodo6.mobility.initialZ 2m
config *.nodo7.mobility.initialX 30m
config *.nodo7.mobility.initialY 45m
config *.nodo7.mobility.initialZ 2m
config *.nodo8.mobility.initialX 45m
config *.nodo8.mobility.initialY 45m
config *.nodo8.mobility.initialZ 2m
config *.nodo9.mobility.initialX 60m
config *.nodo9.mobility.initialY 15m
config *.nodo9.mobility.initialZ 2m
config *.nodo10.mobility.initialX 75m
config *.nodo10.mobility.initialY 15m
config *.nodo10.mobility.initialZ 2m
config *.nodo11.mobility.initialX 90m
config *.nodo11.mobility.initialY 15m
config *.nodo11.mobility.initialZ 2m
config *.nodo12.mobility.initialX 60m
config *.nodo12.mobility.initialY 30m
config *.nodo12.mobility.initialZ 2m
config *.nodo13.mobility.initialX 75m
config *.nodo13.mobility.initialY 30m
config *.nodo13.mobility.initialZ 2m
config *.nodo14.mobility.initialX 90m
config *.nodo14.mobility.initialY 30m
config *.nodo14.mobility.initialZ 2m
config *.nodo15.mobility.initialX 60m
config *.nodo15.mobility.initialY 45m
config *.nodo15.mobility.initialZ 2m
config *.nodo16.mobility.initialX 75m
config *.nodo16.mobility.initialY 45m
config *.nodo16.mobility.initialZ 2m
config *.nodo17.mobility.initialX 90m
config *.nodo17.mobility.initialY 45m
config *.nodo17.mobility.initialZ 2m
config *.nodo18.mobility.initialX 45m
config *.nodo18.mobility.initialY 22.5m
config *.nodo18.mobility.initialZ 2m
config *.nodo0.app.numero 0
config *.nodo0.app.sink false
config *.nodo1.app.numero 1
config *.nodo1.app.sink false
config *.nodo2.app.numero 2
config *.nodo2.app.sink false
config *.nodo3.app.numero 3
config *.nodo3.app.sink false
config *.nodo4.app.numero 4
config *.nodo4.app.sink false
config *.nodo5.app.numero 5
config *.nodo5.app.sink false
config *.nodo6.app.numero 6
config *.nodo6.app.sink false
config *.nodo7.app.numero 7
config *.nodo7.app.sink false
config *.nodo8.app.numero 8
config *.nodo8.app.sink false
config *.nodo9.app.numero 9
config *.nodo9.app.sink false
config *.nodo10.app.numero 10
config *.nodo10.app.sink false
config *.nodo11.app.numero 11
config *.nodo11.app.sink false
config *.nodo12.app.numero 12
config *.nodo12.app.sink false
config *.nodo13.app.numero 13
config *.nodo13.app.sink false
config *.nodo14.app.numero 14
config *.nodo14.app.sink false
config *.nodo15.app.numero 15
config *.nodo15.app.sink false
config *.nodo16.app.numero 16
config *.nodo16.app.sink false
config *.nodo17.app.numero 17
config *.nodo17.app.sink false
config *.nodo18.app.numero 18
config *.nodo18.app.sink true

vector 0 rede02.nodo0.wlan.queue queueLength:vector ETV
attr autoWarmupFilter false
attr interpolationmode sample-hold
attr recordingmode vector
attr source "warmup(atomic(constant0(packetPushEnded) + count(packetPushStarted) - count(packetPulled) - count(packetRemoved) - count(packetDropped)))"
attr title "queue length"
attr unit pk
vector 1 rede02.nodo0.wlan.queue queueBitLength:vector ETV
attr autoWarmupFilter false
attr interpolationmode sample-hold
attr recordingmode vector
attr source "warmup(atomic(constant0(packetPushEnded) + sum(packetLength(packetPushStarted)) - sum(packetLength(packetPulled)) - sum(packetLength(packetRemoved)) - sum(packetLength(packetDropped))))"
attr title "queue bit length"
attr unit b
vector 2 rede02.nodo0.energyStorage residualEnergyCapacity:vector ETV
attr interpolationmode linear
attr recordingmode vector
attr source residualEnergyCapacityChanged
attr title "Residual energy capacity"
attr unit J
vector 3 rede02.nodo1.wlan.queue queueLength:vector ETV
attr autoWarmupFilter false
attr interpolationmode sample-hold
attr recordingmode vector
attr source "warmup(atomic(constant0(packetPushEnded) + count(packetPushStarted) - count(packetPulled) - count(packetRemoved) - count(packetDropped)))"
attr title "queue length"
attr unit pk
vector 4 rede02.nodo1.wlan.queue queueBitLength:vector ETV
attr autoWarmupFilter false
attr interpolationmode sample-hold
attr recordingmode vector
attr source "warmup(atomic(constant0(packetPushEnded) + sum(packetLength(packetPushStarted)) - sum(packetLength(packetPulled)) - sum(packetLength(packetRemoved)) - sum(packetLength(packetDropped))))"
attr title "queue bit length"
attr unit b
vector 5 rede02.nodo1.energyStorage residualEnergyCapacity:vector ETV
attr interpolationmode linear
attr recordingmode vector
attr source residualEnergyCapacityChanged
attr title "Residual energy capacity"
attr unit J
vector 6 rede02.nodo2.wlan.queue queueLength:vector ETV
attr autoWarmupFilter false
attr interpolationmode sample-hold
attr recordingmode vector
attr source "warmup(atomic(constant0(packetPushEnded) + count(packetPushStarted) - count(packetPulled) - count(packetRemoved) - count(packetDropped)))"
attr title "queue length"
attr unit pk
vector 7 rede02.nodo2.wlan.queue queueBitLength:vector ETV
attr autoWarmupFilter false
attr interpolationmode sample-hold
attr recordingmode vector
attr source "warmup(atomic(constant0(packetPushEnded) + sum(packetLength(packetPushStarted)) - sum(packetLength(packetPulled)) - sum(packetLength(packetRemoved)) - sum(packetLength(packetDropped))))"
attr title "queue bit length"
attr unit b
vector 8 rede02.nodo2.energyStorage residualEnergyCapacity:vector ETV
attr interpolationmode linear
attr recordingmode vector
attr source residualEnergyCapacityChanged
attr title "Residual energy capacity"
attr unit J
vector 9 rede02.nodo3.wlan.queue queueLength:vector ETV
attr autoWarmupFilter false
attr interpolationmode sample-hold
attr recordingmode vector
attr source "warmup(atomic(constant0(packetPushEnded) + count(packetPushStarted) - count(packetPulled) - count(packetRemoved) - count(packetDropped)))"
attr title "queue length"
attr unit pk
vector 10 rede02.nodo3.wlan.queue queueBitLength:vector ETV
attr autoWarmupFilter false
attr interpolationmode sample-hold
attr recordingmode vector
attr source "warmup(atomic(constant0(packetPushEnded) + sum(packetLength(packetPushStarted)) - sum(packetLength(packetPulled)) - sum(packetLength(packetRemoved)) - sum(packetLength(packetDropped))))"
attr title "queue bit length"
attr unit b
vector 11 rede02.nodo3.energyStorage residualEnergyCapacity:vector ETV
attr interpolationmode linear
attr recordingmode vector
attr source residualEnergyCapacityChanged
attr title "Residual energy capacity"
attr unit J
vector 12 rede02.nodo4.wlan.queue queueLength:vector ETV
attr autoWarmupFilter false
attr interpolationmode sample-hold
attr recordingmode vector
attr source "warmup(atomic(constant0(packetPushEnded) + count(packetPushStarted) - count(packetPulled) - count(packetRemoved) - count(packetDropped)))"
attr title "queue length"
attr unit pk
vector 13 rede02.nodo4.wlan.queue queueBitLength:vector ETV
attr autoWarmupFilter false
attr interpolationmode sample-hold
attr recordingmode vector
attr source "warmup(atomic(constant0(packetPushEnded) + sum(packetLength(packetPushStarted)) - sum(packetLength(packetPulled)) - sum(packetLength(packetRemoved)) - sum(packetLength(packetDropped))))"
attr title "queue bit length"
attr unit b
vector 14 rede02.nodo4.energyStorage residualEnergyCapacity:vector ETV
attr interpolationmode linear
attr recordingmode vector
attr source residualEnergyCapacityChanged
attr title "Residual energy capacity"
attr unit J
vector 15 rede02.nodo5.wlan.queue queueLength:vector ETV
attr autoWarmupFilter false
attr interpolationmode sample-hold
attr recordingmode vector
attr source "warmup(atomic(constant0(packetPushEnded) + count(packetPushStarted) - count(packetPulled) - count(packetRemoved) - count(packetDropped)))"
attr title "queue length"
attr unit pk
vector 16 rede02.nodo5.wlan.queue queueBitLength:vector ETV
attr autoWarmupFilter false
attr interpolationmode sample-hold
attr recordingmode vector
attr source "warmup(atomic(constant0(packetPushEnded) + sum(packetLength(packetPushStarted)) - sum(packetLength(packetPulled)) - sum(packetLength(packetRemoved)) - sum(packetLength(packetDropped))))"
attr title "queue bit length"
attr unit b
vector 17 rede02.nodo5.energyStorage residualEnergyCapacity:vector ETV
attr interpolationmode linear
attr recordingmode vector
attr source residualEnergyCapacityChanged
attr title "Residual energy capacity"
attr unit J
vector 18 rede02.nodo6.wlan.queue queueLength:vector ETV
attr autoWarmupFilter false
attr interpolationmode sample-hold
attr recordingmode vector
attr source "warmup(atomic(constant0(packetPushEnded) + count(packetPushStarted) - count(packetPulled) - count(packetRemoved) - count(packetDropped)))"
attr title "queue length"
attr unit pk
vector 19 rede02.nodo6.wlan.queue queueBitLength:vector ETV
attr autoWarmupFilter false
attr interpolationmode sample-hold
attr recordingmode vector
attr source "warmup(atomic(constant0(packetPushEnded) + sum(packetLength(packetPushStarted)) - sum(packetLength(packetPulled)) - sum(packetLength(packetRemoved)) - sum(packetLength(packetDropped))))"
attr title "queue bit length"
attr unit b
vector 20 rede02.nodo6.energyStorage residualEnergyCapacity:vector ETV
attr interpolationmode linear
attr recordingmode vector
attr source residualEnergyCapacityChanged
attr title "Residual energy capacity"
attr unit J
vector 21 rede02.nodo7.wlan.queue queueLength:vector ETV
attr autoWarmupFilter false
attr interpolationmode sample-hold
attr recordingmode vector
attr source "warmup(atomic(constant0(packetPushEnded) + count(packetPushStarted) - count(packetPulled) - count(packetRemoved) - count(packetDropped)))"
attr title "queue length"
attr unit pk
vector 22 rede02.nodo7.wlan.queue queueBitLength:vector ETV
attr autoWarmupFilter false
attr interpolationmode sample-hold
attr recordingmode vector
attr source "warmup(atomic(constant0(packetPushEnded) + sum(packetLength(packetPushStarted)) - sum(packetLength(packetPulled)) - sum(packetLength(packetRemoved)) - sum(packetLength(packetDropped))))"
attr title "queue bit length"
attr unit b
vector 23 rede02.nodo7.energyStorage residualEnergyCapacity:vector ETV
attr interpolationmode linear
attr recordingmode vector
attr source residualEnergyCapacityChanged
attr title "Residual energy capacity"
attr unit J
vector 24 rede02.nodo8.wlan.queue queueLength:vector ETV
attr autoWarmupFilter false
attr interpolationmode sample-hold
attr recordingmode vector
attr source "warmup(atomic(constant0(packetPushEnded) + count(packetPushStarted) - count(packetPulled) - count(packetRemoved) - count(packetDropped)))"
attr title "queue length"
attr unit pk
vector 25 rede02.nodo8.wlan.queue queueBitLength:vector ETV
attr autoWarmupFilter false
attr interpolationmode sample-hold
attr recordingmode vector
attr source "warmup(atomic(constant0(packetPushEnded) + sum(packetLength(packetPushStarted)) - sum(packetLength(packetPulled)) - sum(packetLength(packetRemoved)) - sum(packetLength(packetDropped))))"
attr title "queue bit length"
attr unit b
vector 26 rede02.nodo8.energyStorage residualEnergyCapacity:vector ETV
attr interpolationmode linear
attr recordingmode vector
attr source residualEnergyCapacityChanged
attr title "Residual energy capacity"
attr unit J
vector 27 rede02.nodo9.wlan.queue queueLength:vector ETV
attr autoWarmupFilter false
attr interpolationmode sample-hold
attr recordingmode vector
attr source "warmup(atomic(constant0(packetPushEnded) + count(packetPushStarted) - count(packetPulled) - count(packetRemoved) - count(packetDropped)))"
attr title "queue length"
attr unit pk
vector 28 rede02.nodo9.wlan.queue queueBitLength:vector ETV
attr autoWarmupFilter false
attr interpolationmode sample-hold
attr recordingmode vector
attr source "warmup(atomic(constant0(packetPushEnded) + sum(packetLength(packetPushStarted)) - sum(packetLength(packetPulled)) - sum(packetLength(packetRemoved)) - sum(packetLength(packetDropped))))"
attr title "queue bit length"
attr unit b
vector 29 rede02.nodo9.energyStorage residualEnergyCapacity:vector ETV
attr interpolationmode linear
attr recordingmode vector
attr source residualEnergyCapacityChanged
attr title "Residual energy capacity"
attr unit J
vector 30 rede02.nodo10.wlan.queue queueLength:vector ETV
attr autoWarmupFilter false
attr interpolationmode sample-hold
attr recordingmode vector
attr source "warmup(atomic(constant0(packetPushEnded) + count(packetPushStarted) - count(packetPulled) - count(packetRemoved) - count(packetDropped)))"
attr title "queue length"
attr unit pk
vector 31 rede02.nodo10.wlan.queue queueBitLength:vector ETV
attr autoWarmupFilter false
attr interpolationmode sample-hold
attr recordingmode vector
attr source "warmup(atomic(constant0(packetPushEnded) + sum(packetLength(packetPushStarted)) - sum(packetLength(packetPulled)) - sum(packetLength(packetRemoved)) - sum(packetLength(packetDropped))))"
attr title "queue bit length"
attr unit b
vector 32 rede02.nodo10.energyStorage residualEnergyCapacity:vector ETV
attr interpolationmode linear
attr recordingmode vector
attr source residualEnergyCapacityChanged
attr title "Residual energy capacity"
attr unit J
vector 33 rede02.nodo11.wlan.queue queueLength:vector ETV
attr autoWarmupFilter false
attr interpolationmode sample-hold
attr recordingmode vector
attr source "warmup(atomic(constant0(packetPushEnded) + count(packetPushStarted) - count(packetPulled) - count(packetRemoved) - count(packetDropped)))"
attr title "queue length"
attr unit pk
vector 34 rede02.nodo11.wlan.queue queueBitLength:vector ETV
attr autoWarmupFilter false
attr interpolationmode sample-hold
attr recordingmode vector
attr source "warmup(atomic(constant0(packetPushEnded) + sum(packetLength(packetPushStarted)) - sum(packetLength(packetPulled)) - sum(packetLength(packetRemoved)) - sum(packetLength(packetDropped))))"
attr title "queue bit length"
attr unit b
vector 35 rede02.nodo11.energyStorage residualEnergyCapacity:vector ETV
attr interpolationmode linear
attr recordingmode vector
attr source residualEnergyCapacityChanged
attr title "Residual energy capacity"
attr unit J
vector 36 rede02.nodo12.wlan.queue queueLength:vector ETV
attr autoWarmupFilter false
attr interpolationmode sample-hold
attr recordingmode vector
attr source "warmup(atomic(constant0(packetPushEnded) + count(packetPushStarted) - count(packetPulled) - count(packetRemoved) - count(packetDropped)))"
attr title "queue length"
attr unit pk
vector 37 rede02.nodo12.wlan.queue queueBitLength:vector ETV
attr autoWarmupFilter false
attr interpolationmode sample-hold
attr recordingmode vector
attr source "warmup(atomic(constant0(packetPushEnded) + sum(packetLength(packetPushStarted)) - sum(packetLength(packetPulled)) - sum(packetLength(packetRemoved)) - sum(packetLength(packetDropped))))"
attr title "queue bit length"
attr unit b
vector 38 rede02.nodo12.energyStorage residualEnergyCapacity:vector ETV
attr interpolationmode linear
attr recordingmode vector
attr source residualEnergyCapacityChanged
attr title "Residual energy capacity"
attr unit J
vector 39 rede02.nodo13.wlan.queue queueLength:vector ETV
attr autoWarmupFilter false
attr interpolationmode sample-hold
attr recordingmode vector
attr source "warmup(atomic(constant0(packetPushEnded) + count(packetPushStarted) - count(packetPulled) - count(packetRemoved) - count(packetDropped)))"
attr title "queue length"
attr unit pk
vector 40 rede02.nodo13.wlan.queue queueBitLength:vector ETV
attr autoWarmupFilter false
attr interpolationmode sample-hold
attr recordingmode vector
attr source "warmup(atomic(constant0(packetPushEnded) + sum(packetLength(packetPushStarted)) - sum(packetLength(packetPulled)) - sum(packetLength(packetRemoved)) - sum(packetLength(packetDropped))))"
attr title "queue bit length"
attr unit b
vector 41 rede02.nodo13.energyStorage residualEnergyCapacity:vector ETV
attr interpolationmode linear
attr recordingmode vector
attr source residualEnergyCapacityChanged
attr title "Residual energy capacity"
attr unit J
vector 42 rede02.nodo14.wlan.queue queueLength:vector ETV
attr autoWarmupFilter false
attr interpolationmode sample-hold
attr recordingmode vector
attr source "warmup(atomic(constant0(packetPushEnded) + count(packetPushStarted) - count(packetPulled) - count(packetRemoved) - count(packetDropped)))"
attr title "queue length"
attr unit pk
vector 43 rede02.nodo14.wlan.queue queueBitLength:vector ETV
attr autoWarmupFilter false
attr interpolationmode sample-hold
attr recordingmode vector
attr source "warmup(atomic(constant0(packetPushEnded) + sum(packetLength(packetPushStarted)) - sum(packetLength(packetPulled)) - sum(packetLength(packetRemoved)) - sum(packetLength(packetDropped))))"
attr title "queue bit length"
attr unit b
vector 44 rede02.nodo14.energyStorage residualEnergyCapacity:vector ETV
attr interpolationmode linear
attr recordingmode vector
attr source residualEnergyCapacityChanged
attr title "Residual energy capacity"
attr unit J
vector 45 rede02.nodo15.wlan.queue queueLength:vector ETV
attr autoWarmupFilter false
attr interpolationmode sample-hold
attr recordingmode vector
attr source "warmup(atomic(constant0(packetPushEnded) + count(packetPushStarted) - count(packetPulled) - count(packetRemoved) - count(packetDropped)))"
attr title "queue length"
attr unit pk
vector 46 rede02.nodo15.wlan.queue queueBitLength:vector ETV
attr autoWarmupFilter false
attr interpolationmode sample-hold
attr recordingmode vector
attr source "warmup(atomic(constant0(packetPushEnded) + sum(packetLength(packetPushStarted)) - sum(packetLength(packetPulled)) - sum(packetLength(packetRemoved)) - sum(packetLength(packetDropped))))"
attr title "queue bit length"
attr unit b
vector 47 rede02.nodo15.energyStorage residualEnergyCapacity:vector ETV
attr interpolationmode linear
attr recordingmode vector
attr source residualEnergyCapacityChanged
attr title "Residual energy capacity"
attr unit J
vector 48 rede02.nodo16.wlan.queue queueLength:vector ETV
attr autoWarmupFilter false
attr interpolationmode sample-hold
attr recordingmode vector
attr source "warmup(atomic(constant0(packetPushEnded) + count(packetPushStarted) - count(packetPulled) - count(packetRemoved) - count(packetDropped)))"
attr title "queue length"
attr unit pk
vector 49 rede02.nodo16.wlan.queue queueBitLength:vector ETV
attr autoWarmupFilter false
attr interpolationmode sample-hold
attr recordingmode vector
attr source "warmup(atomic(constant0(packetPushEnded) + sum(packetLength(packetPushStarted)) - sum(packetLength(packetPulled)) - sum(packetLength(packetRemoved)) - sum(packetLength(packetDropped))))"
attr title "queue bit length"
attr unit b
vector 50 rede02.nodo16.energyStorage residualEnergyCapacity:vector ETV
attr interpolationmode linear
attr recordingmode vector
attr source residualEnergyCapacityChanged
attr title "Residual energy capacity"
attr unit J
vector 51 rede02.nodo17.wlan.queue queueLength:vector ETV
attr autoWarmupFilter false
attr interpolationmode sample-hold
attr recordingmode vector
attr source "warmup(atomic(constant0(packetPushEnded) + count(packetPushStarted) - count(packetPulled) - count(packetRemoved) - count(packetDropped)))"
attr title "queue length"
attr unit pk
vector 52 rede02.nodo17.wlan.queue queueBitLength:vector ETV
attr autoWarmupFilter false
attr interpolationmode sample-hold
attr recordingmode vector
attr source "warmup(atomic(constant0(packetPushEnded) + sum(packetLength(packetPushStarted)) - sum(packetLength(packetPulled)) - sum(packetLength(packetRemoved)) - sum(packetLength(packetDropped))))"
attr title "queue bit length"
attr unit b
vector 53 rede02.nodo17.energyStorage residualEnergyCapacity:vector ETV
attr interpolationmode linear
attr recordingmode vector
attr source residualEnergyCapacityChanged
attr title "Residual energy capacity"
attr unit J
vector 54 rede02.nodo18.wlan.queue queueLength:vector ETV
attr autoWarmupFilter false
attr interpolationmode sample-hold
attr recordingmode vector
attr source "warmup(atomic(constant0(packetPushEnded) + count(packetPushStarted) - count(packetPulled) - count(packetRemoved) - count(packetDropped)))"
attr title "queue length"
attr unit pk
vector 55 rede02.nodo18.wlan.queue queueBitLength:vector ETV
attr autoWarmupFilter false
attr interpolationmode sample-hold
attr recordingmode vector
attr source "warmup(atomic(constant0(packetPushEnded) + sum(packetLength(packetPushStarted)) - sum(packetLength(packetPulled)) - sum(packetLength(packetRemoved)) - sum(packetLength(packetDropped))))"
attr title "queue bit length"
attr unit b
vector 56 rede02.nodo18.energyStorage residualEnergyCapacity:vector ETV
attr interpolationmode linear
attr recordingmode vector
attr source residualEnergyCapacityChanged
attr title "Residual energy capacity"
attr unit J
vector 57 rede02.nodo0.energyStorage powerConsumption:vector ETV
attr interpolationmode sample-hold
attr recordingmode vector
attr source powerConsumptionChanged
attr title "Power consumption"
attr unit W
vector 58 rede02.nodo1.energyStorage powerConsumption:vector ETV
attr interpolationmode sample-hold
attr recordingmode vector
attr source powerConsumptionChanged
attr title "Power consumption"
attr unit W
vector 59 rede02.nodo2.energyStorage powerConsumption:vector ETV
attr interpolationmode sample-hold
attr recordingmode vector
attr source powerConsumptionChanged
attr title "Power consumption"
attr unit W
vector 60 rede02.nodo3.energyStorage powerConsumption:vector ETV
attr interpolationmode sample-hold
attr recordingmode vector
attr source powerConsumptionChanged
attr title "Power consumption"
attr unit W
vector 61 rede02.nodo4.energyStorage powerConsumption:vector ETV
attr interpolationmode sample-hold
attr recordingmode vector
attr source powerConsumptionChanged
attr title "Power consumption"
attr unit W
vector 62 rede02.nodo5.energyStorage powerConsumption:vector ETV
attr interpolationmode sample-hold
attr recordingmode vector
attr source powerConsumptionChanged
attr title "Power consumption"
attr unit W
vector 63 rede02.nodo6.energyStorage powerConsumption:vector ETV
attr interpolationmode sample-hold
attr recordingmode vector
attr source powerConsumptionChanged
attr title "Power consumption"
attr unit W
vector 64 rede02.nodo7.energyStorage powerConsumption:vector ETV
attr interpolationmode sample-hold
attr recordingmode vector
attr source powerConsumptionChanged
attr title "Power consumption"
attr unit W
vector 65 rede02.nodo8.energyStorage powerConsumption:vector ETV
attr interpolationmode sample-hold
attr recordingmode vector
attr source powerConsumptionChanged
attr title "Power consumption"
attr unit W
vector 66 rede02.nodo9.energyStorage powerConsumption:vector ETV
attr interpolationmode sample-hold
attr recordingmode vector
attr source powerConsumptionChanged
attr title "Power consumption"
attr unit W
vector 67 rede02.nodo10.energyStorage powerConsumption:vector ETV
attr interpolationmode sample-hold
attr recordingmode vector
attr source powerConsumptionChanged
attr title "Power consumption"
attr unit W
vector 68 rede02.nodo11.energyStorage powerConsumption:vector ETV
attr interpolationmode sample-hold
attr recordingmode vector
attr source powerConsumptionChanged
attr title "Power consumption"
attr unit W
vector 69 rede02.nodo12.energyStorage powerConsumption:vector ETV
attr interpolationmode sample-hold
attr recordingmode vector
attr source powerConsumptionChanged
attr title "Power consumption"
attr unit W
vector 70 rede02.nodo13.energyStorage powerConsumption:vector ETV
attr interpolationmode sample-hold
attr recordingmode vector
attr source powerConsumptionChanged
attr title "Power consumption"
attr unit W
vector 71 rede02.nodo14.energyStorage powerConsumption:vector ETV
attr interpolationmode sample-hold
attr recordingmode vector
attr source powerConsumptionChanged
attr title "Power consumption"
attr unit W
vector 72 rede02.nodo15.energyStorage powerConsumption:vector ETV
attr interpolationmode sample-hold
attr recordingmode vector
attr source powerConsumptionChanged
attr title "Power consumption"
attr unit W
vector 73 rede02.nodo16.energyStorage powerConsumption:vector ETV
attr interpolationmode sample-hold
attr recordingmode vector
attr source powerConsumptionChanged
attr title "Power consumption"
attr unit W
vector 74 rede02.nodo17.energyStorage powerConsumption:vector ETV
attr interpolationmode sample-hold
attr recordingmode vector
attr source powerConsumptionChanged
attr title "Power consumption"
attr unit W
vector 75 rede02.nodo18.energyStorage powerConsumption:vector ETV
attr interpolationmode sample-hold
attr recordingmode vector
attr source powerConsumptionChanged
attr title "Power consumption"
attr unit W
vector 76 rede02.nodo0.wlan.radio radioMode:vector ETV
attr interpolationmode sample-hold
attr recordingmode vector
attr source radioModeChanged
attr title "Radio mode"
vector 77 rede02.nodo0.wlan.radio.energyConsumer powerConsumption:vector ETV
attr interpolationmode sample-hold
attr recordingmode vector
attr source powerConsumptionChanged
attr title "Power consumption"
attr unit W
vector 78 rede02.nodo1.wlan.radio radioMode:vector ETV
attr interpolationmode sample-hold
attr recordingmode vector
attr source radioModeChanged
attr title "Radio mode"
vector 79 rede02.nodo1.wlan.radio.energyConsumer powerConsumption:vector ETV
attr interpolationmode sample-hold
attr recordingmode vector
attr source powerConsumptionChanged
attr title "Power consumption"
attr unit W
vector 80 rede02.nodo2.wlan.radio radioMode:vector ETV
attr interpolationmode sample-hold
attr recordingmode vector
attr source radioModeChanged
attr title "Radio mode"
vector 81 rede02.nodo2.wlan.radio.energyConsumer powerConsumption:vector ETV
attr interpolationmode sample-hold
attr recordingmode vector
attr source powerConsumptionChanged
attr title "Power consumption"
attr unit W
vector 82 rede02.nodo3.wlan.radio radioMode:vector ETV
attr interpolationmode sample-hold
attr recordingmode vector
attr source radioModeChanged
attr title "Radio mode"
vector 83 rede02.nodo3.wlan.radio.energyConsumer powerConsumption:vector ETV
attr interpolationmode sample-hold
attr recordingmode vector
attr source powerConsumptionChanged
attr title "Power consumption"
attr unit W
vector 84 rede02.nodo4.wlan.radio radioMode:vector ETV
attr interpolationmode sample-hold
attr recordingmode vector
attr source radioModeChanged
attr title "Radio mode"
vector 85 rede02.nodo4.wlan.radio.energyConsumer powerConsumption:vector ETV
attr interpolationmode sample-hold
attr recordingmode vector
attr source powerConsumptionChanged
attr title "Power consumption"
attr unit W
vector 86 rede02.nodo5.wlan.radio radioMode:vector ETV
attr interpolationmode sample-hold
attr recordingmode vector
attr source radioModeChanged
attr title "Radio mode"
vector 87 rede02.nodo5.wlan.radio.energyConsumer powerConsumption:vector ETV
attr interpolationmode sample-hold
attr recordingmode vector
attr source powerConsumptionChanged
attr title "Power consumption"
attr unit W
vector 88 rede02.nodo6.wlan.radio radioMode:vector ETV
attr interpolationmode sample-hold
attr recordingmode vector
attr source radioModeChanged
attr title "Radio mode"
vector 89 rede02.nodo6.wlan.radio.energyConsumer powerConsumption:vector ETV
attr interpolationmode sample-hold
attr recordingmode vector
attr source powerConsumptionChanged
attr title "Power consumption"
attr unit W
vector 90 rede02.nodo7.wlan.radio radioMode:vector ETV
attr interpolationmode sample-hold
attr recordingmode vector
attr source radioModeChanged
attr title "Radio mode"
vector 91 rede02.nodo7.wlan.radio.energyConsumer powerConsumption:vector ETV
attr interpolationmode sample-hold
attr recordingmode vector
attr source powerConsumptionChanged
attr title "Power consumption"
attr unit W
vector 92 rede02.nodo8.wlan.radio radioMode:vector ETV
attr interpolationmode sample-hold
attr recordingmode vector
attr source radioModeChanged
attr title "Radio mode"
vector 93 rede02.nodo8.wlan.radio.energyConsumer powerConsumption:vector ETV
attr interpolationmode sample-hold
attr recordingmode vector
attr source powerConsumptionChanged
attr title "Power consumption"
attr unit W
vector 94 rede02.nodo9.wlan.radio radioMode:vector ETV
attr interpolationmode sample-hold
attr recordingmode vector
attr source radioModeChanged
attr title "Radio mode"
vector 95 rede02.nodo9.wlan.radio.energyConsumer powerConsumption:vector ETV
attr interpolationmode sample-hold
attr recordingmode vector
attr source powerConsumptionChanged
attr title "Power consumption"
attr unit W
vector 96 rede02.nodo10.wlan.radio radioMode:vector ETV
attr interpolationmode sample-hold
attr recordingmode vector
attr source radioModeChanged
attr title "Radio mode"
vector 97 rede02.nodo10.wlan.radio.energyConsumer powerConsumption:vector ETV
attr interpolationmode sample-hold
attr recordingmode vector
attr source powerConsumptionChanged
attr title "Power consumption"
attr unit W
vector 98 rede02.nodo11.wlan.radio radioMode:vector ETV
attr interpolationmode sample-hold
attr recordingmode vector
attr source radioModeChanged
attr title "Radio mode"
vector 99 rede02.nodo11.wlan.radio.energyConsumer powerConsumption:vector ETV
attr interpolationmode sample-hold
attr recordingmode vector
attr source powerConsumptionChanged
attr title "Power consumption"
attr unit W
vector 100 rede02.nodo12.wlan.radio radioMode:vector ETV
attr interpolationmode sample-hold
attr recordingmode vector
attr source radioModeChanged
attr title "Radio mode"
vector 101 rede02.nodo12.wlan.radio.energyConsumer powerConsumption:vector ETV
attr interpolationmode sample-hold
attr recordingmode vector
attr source powerConsumptionChanged
attr title "Power consumption"
attr unit W
vector 102 rede02.nodo13.wlan.radio radioMode:vector ETV
attr interpolationmode sample-hold
attr recordingmode vector
attr source radioModeChanged
attr title "Radio mode"
vector 103 rede02.nodo13.wlan.radio.energyConsumer powerConsumption:vector ETV
attr interpolationmode sample-hold
attr recordingmode vector
attr source powerConsumptionChanged
attr title "Power consumption"
attr unit W
vector 104 rede02.nodo14.wlan.radio radioMode:vector ETV
attr interpolationmode sample-hold
attr recordingmode vector
attr source radioModeChanged
attr title "Radio mode"
vector 105 rede02.nodo14.wlan.radio.energyConsumer powerConsumption:vector ETV
attr interpolationmode sample-hold
attr recordingmode vector
attr source powerConsumptionChanged
attr title "Power consumption"
attr unit W
vector 106 rede02.nodo15.wlan.radio radioMode:vector ETV
attr interpolationmode sample-hold
attr recordingmode vector
attr source radioModeChanged
attr title "Radio mode"
vector 107 rede02.nodo15.wlan.radio.energyConsumer powerConsumption:vector ETV
attr interpolationmode sample-hold
attr recordingmode vector
attr source powerConsumptionChanged
attr title "Power consumption"
attr unit W
vector 108 rede02.nodo16.wlan.radio radioMode:vector ETV
attr interpolationmode sample-hold
attr recordingmode vector
attr source radioModeChanged
attr title "Radio mode"
vector 109 rede02.nodo16.wlan.radio.energyConsumer powerConsumption:vector ETV
attr interpolationmode sample-hold
attr recordingmode vector
attr source powerConsumptionChanged
attr title "Power consumption"
attr unit W
vector 110 rede02.nodo17.wlan.radio radioMode:vector ETV
attr interpolationmode sample-hold
attr recordingmode vector
attr source radioModeChanged
attr title "Radio mode"
vector 111 rede02.nodo17.wlan.radio.energyConsumer powerConsumption:vector ETV
attr interpolationmode sample-hold
attr recordingmode vector
attr source powerConsumptionChanged
attr title "Power consumption"
attr unit W
vector 112 rede02.nodo18.wlan.radio radioMode:vector ETV
attr interpolationmode sample-hold
attr recordingmode vector
attr source radioModeChanged
attr title "Radio mode"
vector 113 rede02.nodo18.wlan.radio.energyConsumer powerConsumption:vector ETV
attr interpolationmode sample-hold
attr recordingmode vector
attr source powerConsumptionChanged
attr title "Power consumption"
attr unit W
vector 114 rede02.nodo0.wlan.radio receptionState:vector ETV
attr interpolationmode sample-hold
attr recordingmode vector
attr source receptionStateChanged
attr title "Radio reception state"
vector 115 rede02.nodo1.wlan.radio receptionState:vector ETV
attr interpolationmode sample-hold
attr recordingmode vector
attr source receptionStateChanged
attr title "Radio reception state"
vector 116 rede02.nodo2.wlan.radio receptionState:vector ETV
attr interpolationmode sample-hold
attr recordingmode vector
attr source receptionStateChanged
attr title "Radio reception state"
vector 117 rede02.nodo3.wlan.radio receptionState:vector ETV
attr interpolationmode sample-hold
attr recordingmode vector
attr source receptionStateChanged
attr title "Radio reception state"
vector 118 rede02.nodo4.wlan.radio receptionState:vector ETV
attr interpolationmode sample-hold
attr recordingmode vector
attr source receptionStateChanged
attr title "Radio reception state"
vector 119 rede02.nodo5.wlan.radio receptionState:vector ETV
attr interpolationmode sample-hold
attr recordingmode vector
attr source receptionStateChanged
attr title "Radio reception state"
vector 120 rede02.nodo6.wlan.radio receptionState:vector ETV
attr interpolationmode sample-hold
attr recordingmode vector
attr source receptionStateChanged
attr title "Radio reception state"
vector 121 rede02.nodo7.wlan.radio receptionState:vector ETV
attr interpolationmode sample-hold
attr recordingmode vector
attr source receptionStateChanged
attr title "Radio reception state"
vector 122 rede02.nodo8.wlan.radio receptionState:vector ETV
attr interpolationmode sample-hold
attr recordingmode vector
attr source receptionStateChanged
attr title "Radio reception state"
vector 123 rede02.nodo9.wlan.radio receptionState:vector ETV
attr interpolationmode sample-hold
attr recordingmode vector
attr source receptionStateChanged
attr title "Radio reception state"
vector 124 rede02.nodo10.wlan.radio receptionState:vector ETV
attr interpolationmode sample-hold
attr recordingmode vector
attr source receptionStateChanged
attr title "Radio reception state"
vector 125 rede02.nodo11.wlan.radio receptionState:vector ETV
attr interpolationmode sample-hold
attr recordingmode vector
attr source receptionStateChanged
attr title "Radio reception state"
vector 126 rede02.nodo12.wlan.radio receptionState:vector ETV
attr interpolationmode sample-hold
attr recordingmode vector
attr source receptionStateChanged
attr title "Radio reception state"
vector 127 rede02.nodo13.wlan.radio receptionState:vector ETV
attr interpolationmode sample-hold
attr recordingmode vector
attr source receptionStateChanged
attr title "Radio reception state"
vector 128 rede02.nodo14.wlan.radio receptionState:vector ETV
attr interpolationmode sample-hold
attr recordingmode vector
attr source receptionStateChanged
attr title "Radio reception state"
vector 129 rede02.nodo15.wlan.radio receptionState:vector ETV
attr interpolationmode sample-hold
attr recordingmode vector
attr source receptionStateChanged
attr title "Radio reception state"
vector 130 rede02.nodo16.wlan.radio receptionState:vector ETV
attr interpolationmode sample-hold
attr recordingmode vector
attr source receptionStateChanged
attr title "Radio reception state"
vector 131 rede02.nodo17.wlan.radio receptionState:vector ETV
attr interpolationmode sample-hold
attr recordingmode vector
attr source receptionStateChanged
attr title "Radio reception state"
vector 132 rede02.nodo18.wlan.radio receptionState:vector ETV
attr interpolationmode sample-hold
attr recordingmode vector
attr source receptionStateChanged
attr title "Radio reception state"
vector 133 rede02.nodo12.wlan.queue incomingPacketLengths:vector ETV
attr interpolationmode none
attr recordingmode vector
attr source packetLength(packetPushStarted)
attr title "incoming packet lengths"
attr unit b
vector 134 rede02.nodo12.wlan.queue incomingDataRate:vector ETV
attr interpolationmode linear
attr recordingmode vector
attr source throughput(packetPushStarted)
attr title "incoming datarate"
attr unit bps
vector 135 rede02.nodo12.wlan.radio transmissionState:vector ETV
attr interpolationmode sample-hold
attr recordingmode vector
attr source transmissionStateChanged
attr title "Radio transmission state"
vector 136 rede02.nodo12.wlan.queue queueingTime:vector ETV
attr interpolationmode none
attr recordingmode vector
attr source queueingTime(packetPulled)
attr title "queueing times"
attr unit s
vector 137 rede02.nodo12.wlan.queue outgoingPacketLengths:vector ETV
attr interpolationmode none
attr recordingmode vector
attr source packetLength(packetPulled)
attr title "outgoing packet lengths"
attr unit b
vector 138 rede02.nodo12.wlan.queue outgoingDataRate:vector ETV
attr interpolationmode linear
attr recordingmode vector
attr source throughput(packetPulled)
attr title "outgoing datarate"
attr unit bps
vector 139 rede02.nodo4.wlan.queue incomingPacketLengths:vector ETV
attr interpolationmode none
attr recordingmode vector
attr source packetLength(packetPushStarted)
attr title "incoming packet lengths"
attr unit b
vector 140 rede02.nodo4.wlan.queue incomingDataRate:vector ETV
attr interpolationmode linear
attr recordingmode vector
attr source throughput(packetPushStarted)
attr title "incoming datarate"
attr unit bps
vector 141 rede02.nodo4.wlan.radio transmissionState:vector ETV
attr interpolationmode sample-hold
attr recordingmode vector
attr source transmissionStateChanged
attr title "Radio transmission state"
vector 142 rede02.nodo4.wlan.queue queueingTime:vector ETV
attr interpolationmode none
attr recordingmode vector
attr source queueingTime(packetPulled)
attr title "queueing times"
attr unit s
vector 143 rede02.nodo4.wlan.queue outgoingPacketLengths:vector ETV
attr interpolationmode none
attr recordingmode vector
attr source packetLength(packetPulled)
attr title "outgoing packet lengths"
attr unit b
vector 144 rede02.nodo4.wlan.queue outgoingDataRate:vector ETV
attr interpolationmode linear
attr recordingmode vector
attr source throughput(packetPulled)
attr title "outgoing datarate"
attr unit bps
vector 145 rede02.nodo8.wlan.queue incomingPacketLengths:vector ETV
attr interpolationmode none
attr recordingmode vector
attr source packetLength(packetPushStarted)
attr title "incoming packet lengths"
attr unit b
vector 146 rede02.nodo8.wlan.queue incomingDataRate:vector ETV
attr interpolationmode linear
attr recordingmode vector
attr source throughput(packetPushStarted)
attr title "incoming datarate"
attr unit bps
vector 147 rede02.nodo8.wlan.radio transmissionState:vector ETV
attr interpolationmode sample-hold
attr recordingmode vector
attr source transmissionStateChanged
attr title "Radio transmission state"
vector 148 rede02.nodo8.wlan.queue queueingTime:vector ETV
attr interpolationmode none
attr recordingmode vector
attr source queueingTime(packetPulled)
attr title "queueing times"
attr unit s
vector 149 rede02.nodo8.wlan.queue outgoingPacketLengths:vector ETV
attr interpolationmode none
attr recordingmode vector
attr source packetLength(packetPulled)
attr title "outgoing packet lengths"
attr unit b
vector 150 rede02.nodo8.wlan.queue outgoingDataRate:vector ETV
attr interpolationmode linear
attr recordingmode vector
attr source throughput(packetPulled)
attr title "outgoing datarate"
attr unit bps
vector 151 rede02.nodo16.wlan.queue incomingPacketLengths:vector ETV
attr interpolationmode none
attr recordingmode vector
attr source packetLength(packetPushStarted)
attr title "incoming packet lengths"
attr unit b
vector 152 rede02.nodo16.wlan.queue incomingDataRate:vector ETV
attr interpolationmode linear
attr recordingmode vector
attr source throughput(packetPushStarted)
attr title "incoming datarate"
attr unit bps
vector 153 rede02.nodo16.wlan.radio transmissionState:vector ETV
attr interpolationmode sample-hold
attr recordingmode vector
attr source transmissionStateChanged
attr title "Radio transmission state"
vector 154 rede02.nodo16.wlan.queue queueingTime:vector ETV
attr interpolationmode none
attr recordingmode vector
attr source queueingTime(packetPulled)
attr title "queueing times"
attr unit s
vector 155 rede02.nodo16.wlan.queue outgoingPacketLengths:vector ETV
attr interpolationmode none
attr recordingmode vector
attr source packetLength(packetPulled)
attr title "outgoing packet lengths"
attr unit b
vector 156 rede02.nodo16.wlan.queue outgoingDataRate:vector ETV
attr interpolationmode linear
attr recordingmode vector
attr source throughput(packetPulled)
attr title "outgoing datarate"
attr unit bps
vector 157 rede02.nodo9.wlan.queue incomingPacketLengths:vector ETV
attr interpolationmode none
attr recordingmode vector
attr source packetLength(packetPushStarted)
attr title "incoming packet lengths"
attr unit b
vector 158 rede02.nodo9.wlan.queue incomingDataRate:vector ETV
attr interpolationmode linear
attr recordingmode vector
attr source throughput(packetPushStarted)
attr title "incoming datarate"
attr unit bps
vector 159 rede02.nodo9.wlan.radio transmissionState:vector ETV
attr interpolationmode sample-hold
attr recordingmode vector
attr source transmissionStateChanged
attr title "Radio transmission state"
vector 160 rede02.nodo9.wlan.queue queueingTime:vector ETV
attr interpolationmode none
attr recordingmode vector
attr source queueingTime(packetPulled)
attr title "queueing times"
attr unit s
vector 161 rede02.nodo9.wlan.queue outgoingPacketLengths:vector ETV
attr interpolationmode none
attr recordingmode vector
attr source packetLength(packetPulled)
attr title "outgoing packet lengths"
attr unit b
vector 162 rede02.nodo9.wlan.queue outgoingDataRate:vector ETV
attr interpolationmode linear
attr recordingmode vector
attr source throughput(packetPulled)
attr title "outgoing datarate"
attr unit bps
vector 163 rede02.nodo2.wlan.queue incomingPacketLengths:vector ETV
attr interpolationmode none
attr recordingmode vector
attr source packetLength(packetPushStarted)
attr title "incoming packet lengths"
attr unit b
vector 164 rede02.nodo2.wlan.queue incomingDataRate:vector ETV
attr interpolationmode linear
attr recordingmode vector
attr source throughput(packetPushStarted)
attr title "incoming datarate"
attr unit bps
vector 165 rede02.nodo2.wlan.radio transmissionState:vector ETV
attr interpolationmode sample-hold
attr recordingmode vector
attr source transmissionStateChanged
attr title "Radio transmission state"
vector 166 rede02.nodo2.wlan.queue queueingTime:vector ETV
attr interpolationmode none
attr recordingmode vector
attr source queueingTime(packetPulled)
attr title "queueing times"
attr unit s
vector 167 rede02.nodo2.wlan.queue outgoingPacketLengths:vector ETV
attr interpolationmode none
attr recordingmode vector
attr source packetLength(packetPulled)
attr title "outgoing packet lengths"
attr unit b
vector 168 rede02.nodo2.wlan.queue outgoingDataRate:vector ETV
attr interpolationmode linear
attr recordingmode vector
attr source throughput(packetPulled)
attr title "outgoing datarate"
attr unit bps
vector 169 rede02.nodo3.wlan.queue incomingPacketLengths:vector ETV
attr interpolationmode none
attr recordingmode vector
attr source packetLength(packetPushStarted)
attr title "incoming packet lengths"
attr unit b
vector 170 rede02.nodo3.wlan.queue incomingDataRate:vector ETV
attr interpolationmode linear
attr recordingmode vector
attr source throughput(packetPushStarted)
attr title "incoming datarate"
attr unit bps
vector 171 rede02.nodo3.wlan.radio transmissionState:vector ETV
attr interpolationmode sample-hold
attr recordingmode vector
attr source transmissionStateChanged
attr title "Radio transmission state"
vector 172 rede02.nodo3.wlan.queue queueingTime:vector ETV
attr interpolationmode none
attr recordingmode vector
attr source queueingTime(packetPulled)
attr title "queueing times"
attr unit s
vector 173 rede02.nodo3.wlan.queue outgoingPacketLengths:vector ETV
attr interpolationmode none
attr recordingmode vector
attr source packetLength(packetPulled)
attr title "outgoing packet lengths"
attr unit b
vector 174 rede02.nodo3.wlan.queue outgoingDataRate:vector ETV
attr interpolationmode linear
attr recordingmode vector
attr source throughput(packetPulled)
attr title "outgoing datarate"
attr unit bps
vector 175 rede02.nodo7.wlan.queue incomingPacketLengths:vector ETV
attr interpolationmode none
attr recordingmode vector
attr source packetLength(packetPushStarted)
attr title "incoming packet lengths"
attr unit b
vector 176 rede02.nodo7.wlan.queue incomingDataRate:vector ETV
attr interpolationmode linear
attr recordingmode vector
attr source throughput(packetPushStarted)
attr title "incoming datarate"
attr unit bps
vector 177 rede02.nodo7.wlan.radio transmissionState:vector ETV
attr interpolationmode sample-hold
attr recordingmode vector
attr source transmissionStateChanged
attr title "Radio transmission state"
vector 178 rede02.nodo7.wlan.queue queueingTime:vector ETV
attr interpolationmode none
attr recordingmode vector
attr source queueingTime(packetPulled)
attr title "queueing times"
attr unit s
vector 179 rede02.nodo7.wlan.queue outgoingPacketLengths:vector ETV
attr interpolationmode none
attr recordingmode vector
attr source packetLength(packetPulled)
attr title "outgoing packet lengths"
attr unit b
vector 180 rede02.nodo7.wlan.queue outgoingDataRate:vector ETV
attr interpolationmode linear
attr recordingmode vector
attr source throughput(packetPulled)
attr title "outgoing datarate"
attr unit bps
vector 181 rede02.nodo14.wlan.queue incomingPacketLengths:vector ETV
attr interpolationmode none
attr recordingmode vector
attr source packetLength(packetPushStarted)
attr title "incoming packet lengths"
attr unit b
vector 182 rede02.nodo14.wlan.queue incomingDataRate:vector ETV
attr interpolationmode linear
attr recordingmode vector
attr source throughput(packetPushStarted)
attr title "incoming datarate"
attr unit bps
vector 183 rede02.nodo14.wlan.radio transmissionState:vector ETV
attr interpolationmode sample-hold
attr recordingmode vector
attr source transmissionStateChanged
attr title "Radio transmission state"
vector 184 rede02.nodo14.wlan.queue queueingTime:vector ETV
attr interpolationmode none
attr recordingmode vector
attr source queueingTime(packetPulled)
attr title "queueing times"
attr unit s
vector 185 rede02.nodo14.wlan.queue outgoingPacketLengths:vector ETV
attr interpolationmode none
attr recordingmode vector
attr source packetLength(packetPulled)
attr title "outgoing packet lengths"
attr unit b
vector 186 rede02.nodo14.wlan.queue outgoingDataRate:vector ETV
attr interpolationmode linear
attr recordingmode vector
attr source throughput(packetPulled)
attr title "outgoing datarate"
attr unit bps
vector 187 rede02.nodo13.wlan.queue incomingPacketLengths:vector ETV
attr interpolationmode none
attr recordingmode vector
attr source packetLength(packetPushStarted)
attr title "incoming packet lengths"
attr unit b
vector 188 rede02.nodo13.wlan.queue incomingDataRate:vector ETV
attr interpolationmode linear
attr recordingmode vector
attr source throughput(packetPushStarted)
attr title "incoming datarate"
attr unit bps
vector 189 rede02.nodo13.wlan.radio transmissionState:vector ETV
attr interpolationmode sample-hold
attr recordingmode vector
attr source transmissionStateChanged
attr title "Radio transmission state"
vector 190 rede02.nodo13.wlan.queue queueingTime:vector ETV
attr interpolationmode none
attr recordingmode vector
attr source queueingTime(packetPulled)
attr title "queueing times"
attr unit s
vector 191 rede02.nodo13.wlan.queue outgoingPacketLengths:vector ETV
attr interpolationmode none
attr recordingmode vector
attr source packetLength(packetPulled)
attr title "outgoing packet lengths"
attr unit b
vector 192 rede02.nodo13.wlan.queue outgoingDataRate:vector ETV
attr interpolationmode linear
attr recordingmode vector
attr source throughput(packetPulled)
attr title "outgoing datarate"
attr unit bps
vector 193 rede02.nodo10.wlan.queue incomingPacketLengths:vector ETV
attr interpolationmode none
attr recordingmode vector
attr source packetLength(packetPushStarted)
attr title "incoming packet lengths"
attr unit b
vector 194 rede02.nodo10.wlan.queue incomingDataRate:vector ETV
attr interpolationmode linear
attr recordingmode vector
attr source throughput(packetPushStarted)
attr title "incoming datarate"
attr unit bps
vector 195 rede02.nodo10.wlan.radio transmissionState:vector ETV
attr interpolationmode sample-hold
attr recordingmode vector
attr source transmissionStateChanged
attr title "Radio transmission state"
vector 196 rede02.nodo10.wlan.queue queueingTime:vector ETV
attr interpolationmode none
attr recordingmode vector
attr source queueingTime(packetPulled)
attr title "queueing times"
attr unit s
vector 197 rede02.nodo10.wlan.queue outgoingPacketLengths:vector ETV
attr interpolationmode none
attr recordingmode vector
attr source packetLength(packetPulled)
attr title "outgoing packet lengths"
attr unit b
vector 198 rede02.nodo10.wlan.queue outgoingDataRate:vector ETV
attr interpolationmode linear
attr recordingmode vector
attr source throughput(packetPulled)
attr title "outgoing datarate"
attr unit bps
vector 199 rede02.nodo11.wlan.queue incomingPacketLengths:vector ETV
attr interpolationmode none
attr recordingmode vector
attr source packetLength(packetPushStarted)
attr title "incoming packet lengths"
attr unit b
vector 200 rede02.nodo11.wlan.queue incomingDataRate:vector ETV
attr interpolationmode linear
attr recordingmode vector
attr source throughput(packetPushStarted)
attr title "incoming datarate"
attr unit bps
vector 201 rede02.nodo11.wlan.radio transmissionState:vector ETV
attr interpolationmode sample-hold
attr recordingmode vector
attr source transmissionStateChanged
attr title "Radio transmission state"
vector 202 rede02.nodo11.wlan.queue queueingTime:vector ETV
attr interpolationmode none
attr recordingmode vector
attr source queueingTime(packetPulled)
attr title "queueing times"
attr unit s
vector 203 rede02.nodo11.wlan.queue outgoingPacketLengths:vector ETV
attr interpolationmode none
attr recordingmode vector
attr source packetLength(packetPulled)
attr title "outgoing packet lengths"
attr unit b
vector 204 rede02.nodo11.wlan.queue outgoingDataRate:vector ETV
attr interpolationmode linear
attr recordingmode vector
attr source throughput(packetPulled)
attr title "outgoing datarate"
attr unit bps
vector 205 rede02.nodo6.wlan.queue incomingPacketLengths:vector ETV
attr interpolationmode none
attr recordingmode vector
attr source packetLength(packetPushStarted)
attr title "incoming packet lengths"
attr unit b
vector 206 rede02.nodo6.wlan.queue incomingDataRate:vector ETV
attr interpolationmode linear
attr recordingmode vector
attr source throughput(packetPushStarted)
attr title "incoming datarate"
attr unit bps
vector 207 rede02.nodo6.wlan.radio transmissionState:vector ETV
attr interpolationmode sample-hold
attr recordingmode vector
attr source transmissionStateChanged
attr title "Radio transmission state"
vector 208 rede02.nodo6.wlan.queue queueingTime:vector ETV
attr interpolationmode none
attr recordingmode vector
attr source queueingTime(packetPulled)
attr title "queueing times"
attr unit s
vector 209 rede02.nodo6.wlan.queue outgoingPacketLengths:vector ETV
attr interpolationmode none
attr recordingmode vector
attr source packetLength(packetPulled)
attr title "outgoing packet lengths"
attr unit b
vector 210 rede02.nodo6.wlan.queue outgoingDataRate:vector ETV
attr interpolationmode linear
attr recordingmode vector
attr source throughput(packetPulled)
attr title "outgoing datarate"
attr unit bps
vector 211 rede02.nodo17.wlan.queue incomingPacketLengths:vector ETV
attr interpolationmode none
attr recordingmode vector
attr source packetLength(packetPushStarted)
attr title "incoming packet lengths"
attr unit b
vector 212 rede02.nodo17.wlan.queue incomingDataRate:vector ETV
attr interpolationmode linear
attr recordingmode vector
attr source throughput(packetPushStarted)
attr title "incoming datarate"
attr unit bps
vector 213 rede02.nodo17.wlan.radio transmissionState:vector ETV
attr interpolationmode sample-hold
attr recordingmode vector
attr source transmissionStateChanged
attr title "Radio transmission state"
vector 214 rede02.nodo17.wlan.queue queueingTime:vector ETV
attr interpolationmode none
attr recordingmode vector
attr source queueingTime(packetPulled)
attr title "queueing times"
attr unit s
vector 215 rede02.nodo17.wlan.queue outgoingPacketLengths:vector ETV
attr interpolationmode none
attr recordingmode vector
attr source packetLength(packetPulled)
attr title "outgoing packet lengths"
attr unit b
vector 216 rede02.nodo17.wlan.queue outgoingDataRate:vector ETV
attr interpolationmode linear
attr recordingmode vector
attr source throughput(packetPulled)
attr title "outgoing datarate"
attr unit bps
vector 217 rede02.nodo5.wlan.queue incomingPacketLengths:vector ETV
attr interpolationmode none
attr recordingmode vector
attr source packetLength(packetPushStarted)
attr title "incoming packet lengths"
attr unit b
vector 218 rede02.nodo5.wlan.queue incomingDataRate:vector ETV
attr interpolationmode linear
attr recordingmode vector
attr source throughput(packetPushStarted)
attr title "incoming datarate"
attr unit bps
vector 219 rede02.nodo5.wlan.radio transmissionState:vector ETV
attr interpolationmode sample-hold
attr recordingmode vector
attr source transmissionStateChanged
attr title "Radio transmission state"
vector 220 rede02.nodo5.wlan.queue queueingTime:vector ETV
attr interpolationmode none
attr recordingmode vector
attr source queueingTime(packetPulled)
attr title "queueing times"
attr unit s
vector 221 rede02.nodo5.wlan.queue outgoingPacketLengths:vector ETV
attr interpolationmode none
attr recordingmode vector
attr source packetLength(packetPulled)
attr title "outgoing packet lengths"
attr unit b
vector 222 rede02.nodo5.wlan.queue outgoingDataRate:vector ETV
attr interpolationmode linear
attr recordingmode vector
attr source throughput(packetPulled)
attr title "outgoing datarate"
attr unit bps
vector 223 rede02.nodo15.wlan.queue incomingPacketLengths:vector ETV
attr interpolationmode none
attr recordingmode vector
attr source packetLength(packetPushStarted)
attr title "incoming packet lengths"
attr unit b
vector 224 rede02.nodo15.wlan.queue incomingDataRate:vector ETV
attr interpolationmode linear
attr recordingmode vector
attr source throughput(packetPushStarted)
attr title "incoming datarate"
attr unit bps
vector 225 rede02.nodo15.wlan.radio transmissionState:vector ETV
attr interpolationmode sample-hold
attr recordingmode vector
attr source transmissionStateChanged
attr title "Radio transmission state"
vector 226 rede02.nodo15.wlan.queue queueingTime:vector ETV
attr interpolationmode none
attr recordingmode vector
attr source queueingTime(packetPulled)
attr title "queueing times"
attr unit s
vector 227 rede02.nodo15.wlan.queue outgoingPacketLengths:vector ETV
attr interpolationmode none
attr recordingmode vector
attr source packetLength(packetPulled)
attr title "outgoing packet lengths"
attr unit b
vector 228 rede02.nodo15.wlan.queue outgoingDataRate:vector ETV
attr interpolationmode linear
attr recordingmode vector
attr source throughput(packetPulled)
attr title "outgoing datarate"
attr unit bps
vector 229 rede02.nodo1.wlan.queue incomingPacketLengths:vector ETV
attr interpolationmode none
attr recordingmode vector
attr source packetLength(packetPushStarted)
attr title "incoming packet lengths"
attr unit b
vector 230 rede02.nodo1.wlan.queue incomingDataRate:vector ETV
attr interpolationmode linear
attr recordingmode vector
attr source throughput(packetPushStarted)
attr title "incoming datarate"
attr unit bps
vector 231 rede02.nodo1.wlan.radio transmissionState:vector ETV
attr interpolationmode sample-hold
attr recordingmode vector
attr source transmissionStateChanged
attr title "Radio transmission state"
vector 232 rede02.nodo1.wlan.queue queueingTime:vector ETV
attr interpolationmode none
attr recordingmode vector
attr source queueingTime(packetPulled)
attr title "queueing times"
attr unit s
vector 233 rede02.nodo1.wlan.queue outgoingPacketLengths:vector ETV
attr interpolationmode none
attr recordingmode vector
attr source packetLength(packetPulled)
attr title "outgoing packet lengths"
attr unit b
vector 234 rede02.nodo1.wlan.queue outgoingDataRate:vector ETV
attr interpolationmode linear
attr recordingmode vector
attr source throughput(packetPulled)
attr title "outgoing datarate"
attr unit bps
vector 235 rede02.nodo0.wlan.queue incomingPacketLengths:vector ETV
attr interpolationmode none
attr recordingmode vector
attr source packetLength(packetPushStarted)
attr title "incoming packet lengths"
attr unit b
vector 236 rede02.nodo0.wlan.queue incomingDataRate:vector ETV
attr interpolationmode linear
attr recordingmode vector
attr source throughput(packetPushStarted)
attr title "incoming datarate"
attr unit bps
vector 237 rede02.nodo0.wlan.radio transmissionState:vector ETV
attr interpolationmode sample-hold
attr recordingmode vector
attr source transmissionStateChanged
attr title "Radio transmission state"
vector 238 rede02.nodo0.wlan.queue queueingTime:vector ETV
attr interpolationmode none
attr recordingmode vector
attr source queueingTime(packetPulled)
attr title "queueing times"
attr unit s
vector 239 rede02.nodo0.wlan.queue outgoingPacketLengths:vector ETV
attr interpolationmode none
attr recordingmode vector
attr source packetLength(packetPulled)
attr title "outgoing packet lengths"
attr unit b
vector 240 rede02.nodo0.wlan.queue outgoingDataRate:vector ETV
attr interpolationmode linear
attr recordingmode vector
attr source throughput(packetPulled)
attr title "outgoing datarate"
attr unit bps
vector 241 rede02.nodo18.wlan.queue outgoingDataRate:vector ETV
attr interpolationmode linear
attr recordingmode vector
attr source throughput(packetPulled)
attr title "outgoing datarate"
attr unit bps
vector 242 rede02.nodo18.wlan.queue incomingDataRate:vector ETV
attr interpolationmode linear
attr recordingmode vector
attr source throughput(packetPushStarted)
attr title "incoming datarate"
attr unit bps
0	0	0	0
0	0	0	0
0	0	0	0
0	0	0	0
0	0	0	0
0	2451	4.825422286987	1
0	2453	4.826830286987	0
1	0	0	0
1	0	0	0
1	0	0	0
1	0	0	0
1	0	0	0
1	2451	4.825422286987	0
1	2453	4.826830286987	0
2	0	0	2
2	1	0.307842850685	1.9993843142986
2	3	0.309122850685	1.9993817542986
2	4	0.309250850685	1.9993814982986
2	5	0.309442850685	1.9993811142986
2	22	0.309443008908	1.9993811139822
2	23	0.309445701537	1.9993810870559
2	72	0.309923008908	1.9993763139822
2	79	0.319923008908	1.9993563139822
2	80	0.580330491066	1.9988354990179
2	82	0.582570491066	1.9988310190179
2	83	0.582698491066	1.9988307630179
2	84	0.582890491066	1.9988303790179
2	90	0.582890561826	1.9988303788763
2	102	0.5828961212	1.9988303232826
2	119	0.583370561826	1.9988255788763
2	151	0.583370697364	1.9988255786053
2	158	0.593291342258	1.9988057373155
2	160	0.593370697364	1.9988055786053
2	161	0.594891342258	1.9988025373155
2	162	0.595019342258	1.9988022813155
2	163	0.595211342258	1.9988018973155
2	177	0.595211483777	1.9988018970324
2	181	0.595216217974	1.9988018496905
2	222	0.595691483777	1.9987970970324
2	233	0.59569152266	1.9987970969547
2	237	0.60569152266	1.9987770969547
2	238	1.305690288544	1.9973770994229
2	241	1.305818288544	1.9973768434229
2	242	1.306010288544	1.9973764594229
2	260	1.306010512306	1.9973764589754
2	260	1.306013813171	1.9973764259667
2	312	1.306490512306	1.9973716589754
2	316	1.316490512306	1.9973516589754
2	317	1.521035671234	1.9969425686575
2	319	1.521995671234	1.9969406486575
2	320	1.522123671234	1.9969403926575
2	321	1.522315671234	1.9969400086575
2	337	1.522315821338	1.9969400083573
2	339	1.522318560747	1.9969399809632
2	386	1.522795821338	1.9969352083573
2	391	1.522795851636	1.9969352082967
2	395	1.532795851636	1.9969152082967
2	396	1.590058326721	1.9968006833466
2	398	1.591018326721	1.9967987633466
2	399	1.591146326721	1.9967985073466
2	400	1.591338326721	1.9967981233466
2	407	1.59133842679	1.9967981231464
2	418	1.591341082005	1.9967980965943
2	438	1.59181842679	1.9967933231464
2	470	1.591818507123	1.9967933229858
2	474	1.601818507123	1.9967733229858
2	475	2.166322469711	1.9956443150606
2	477	2.167282469711	1.9956423950606
2	478	2.167410469711	1.9956421390606
2	479	2.167602469711	1.9956417550606
2	480	2.167602519746	1.9956417549605
2	497	2.167606658791	1.9956417135701
2	499	2.168082519746	1.9956369549605
2	546	2.168082724838	1.9956369545503
2	553	2.178082724838	1.9956169545503
2	554	2.204026222229	1.9955650675555
2	556	2.206266222229	1.9955605875555
2	557	2.206394222229	1.9955603315555
2	558	2.206586222229	1.9955599475555
2	567	2.20658633411	1.9955599473318
2	576	2.206592079029	1.9955598898826
2	602	2.20706633411	1.9955551473318
2	628	2.207066445991	1.995555147108
2	632	2.217066445991	1.995535147108
2	633	2.307842850685	1.9953535942986
2	635	2.308162850685	1.9953529542986
2	636	2.308290850685	1.9953526982986
2	637	2.308482850685	1.9953523142986
2	654	2.308483008908	1.9953523139822
2	655	2.308485402059	1.9953522900507
2	704	2.308963008908	1.9953475139822
2	711	2.318963008908	1.9953275139822
2	712	2.327867031097	1.9953097059378
2	714	2.328827031097	1.9953077859378
2	715	2.328955031097	1.9953075299378
2	716	2.329147031097	1.9953071459378
2	733	2.329147286224	1.9953071454276
2	734	2.329153944173	1.9953070788481
2	783	2.329627286224	1.9953023454276
2	790	2.339627286224	1.9952823454276
2	791	2.391066789627	1.9951794664207
2	793	2.392666789627	1.9951762664207
2	794	2.392794789627	1.9951760104207
2	795	2.392986789627	1.9951756264207
2	812	2.392986995925	1.9951756260081
2	813	2.392990289849	1.9951755930689
2	862	2.393466995925	1.9951708260081
2	869	2.403466995925	1.9951508260081
2	870	2.515224933624	1.9949273101328
2	872	2.515864933624	1.9949260301328
2	873	2.515992933624	1.9949257741328
2	874	2.516184933624	1.9949253901328
2	890	2.516185133762	1.9949253897325
2	892	2.516188766434	1.9949253534058
2	939	2.516665133762	1.9949205897325
2	944	2.516665157386	1.9949205896852
2	948	2.526665157386	1.9949005896852
2	949	2.580330491066	1.9947932590179
2	951	2.581610491066	1.9947906990179
2	952	2.581738491066	1.9947904430179
2	953	2.581930491066	1.9947900590179
2	959	2.581930561826	1.9947900588763
2	971	2.58193375459	1.9947900269487
2	988	2.582410561826	1.9947852588763
2	1020	2.582410697364	1.9947852586053
2	1027	2.592410697364	1.9947652586053
2	1028	2.593291342258	1.9947634973155
2	1030	2.595531342258	1.9947590173155
2	1031	2.595659342258	1.9947587613155
2	1032	2.595851342258	1.9947583773155
2	1046	2.595851483777	1.9947583770324
2	1050	2.595856045261	1.9947583314176
2	1091	2.596331483777	1.9947535770324
2	1102	2.59633152266	1.9947535769547
2	1106	2.60633152266	1.9947335769547
2	1107	3.305690288544	1.9933348594229
2	1109	3.307610288544	1.9933310194229
2	1110	3.307738288544	1.9933307634229
2	1111	3.307930288544	1.9933303794229
2	1129	3.307930512306	1.9933303789754
2	1129	3.307933958549	1.993330344513
2	1181	3.308410512306	1.9933255789754
2	1185	3.318410512306	1.9933055789754
2	1186	3.372630119324	1.9931971397613
2	1189	3.372758119324	1.9931968837613
2	1190	3.372950119324	1.9931964997613
2	1206	3.372950369497	1.993196499261
2	1208	3.372954402743	1.9931964589285
2	1255	3.373430369497	1.993191699261
2	1260	3.373430388769	1.9931916992225
2	1264	3.383430388769	1.9931716992225
2	1265	3.521035671234	1.9928964886575
2	1268	3.521163671234	1.9928962326575
2	1269	3.521355671234	1.9928958486575
2	1285	3.521355821338	1.9928958483573
2	1287	3.521358607708	1.9928958204936
2	1334	3.521835821338	1.9928910483573
2	1339	3.521835851636	1.9928910482967
2	1343	3.531835851636	1.9928710482967
2	1344	3.590058326721	1.9927546033466
2	1346	3.591338326721	1.9927520433466
2	1347	3.591466326721	1.9927517873466
2	1348	3.591658326721	1.9927514033466
2	1355	3.59165842679	1.9927514031464
2	1366	3.591661078061	1.9927513766337
2	1386	3.59213842679	1.9927466031464
2	1418	3.592138507123	1.9927466029858
2	1422	3.602138507123	1.9927266029858
2	1423	3.658893585205	1.9926130928296
2	1425	3.659533585205	1.9926118128296
2	1426	3.659661585205	1.9926115568296
2	1427	3.659853585205	1.9926111728296
2	1431	3.659853685274	1.9926111726294
2	1445	3.659857903649	1.9926111304457
2	1456	3.660333685274	1.9926063726294
2	1497	3.66033385465	1.9926063722907
2	1501	3.67033385465	1.9925863722907
2	1502	3.946533203125	1.9920339735937
2	1504	3.946853203125	1.9920333335937
2	1505	3.946981203125	1.9920330775937
2	1506	3.947173203125	1.9920326935937
2	1524	3.94717347257	1.9920326930549
2	1524	3.947177501253	1.992032652768
2	1576	3.94765347257	1.9920278930549
2	1580	3.95765347257	1.9920078930549
2	1581	4.166322469711	1.9915905550606
2	1583	4.168242469711	1.9915867150606
2	1584	4.168370469711	1.9915864590606
2	1585	4.168562469711	1.9915860750606
2	1586	4.168562519746	1.9915860749605
2	1603	4.16856649963	1.9915860351617
2	1605	4.169042519746	1.9915812749605
2	1652	4.169042724838	1.9915812745503
2	1659	4.179042724838	1.9915612745503
2	1660	4.204026222229	1.9915113075555
2	1662	4.206266222229	1.9915068275555
2	1663	4.206394222229	1.9915065715555
2	1664	4.206586222229	1.9915061875555
2	1673	4.20658633411	1.9915061873318
2	1682	4.206592003341	1.9915061306395
2	1708	4.20706633411	1.9915013873318
2	1734	4.207066445991	1.991501387108
2	1738	4.217066445991	1.991481387108
2	1739	4.307842850685	1.9912998342986
2	1741	4.310082850685	1.9912953542986
2	1742	4.310210850685	1.9912950982986
2	1743	4.310402850685	1.9912947142986
2	1760	4.310403008908	1.9912947139822
2	1761	4.310405466908	1.9912946894022
2	1810	4.310883008908	1.9912899139822
2	1817	4.320883008908	1.9912699139822
2	1818	4.327867031097	1.9912559459378
2	1820	4.329787031097	1.9912521059378
2	1821	4.329915031097	1.9912518499378
2	1822	4.330107031097	1.9912514659378
2	1839	4.330107286224	1.9912514654275
2	1840	4.330111307071	1.9912514252191
2	1889	4.330587286224	1.9912466654275
2	1896	4.340587286224	1.9912266654275
2	1897	4.356704711914	1.9911944305762
2	1900	4.356832711914	1.9911941745762
2	1901	4.357024711914	1.9911937905762
2	1913	4.357024823795	1.9911937903524
2	1919	4.357028440455	1.9911937541858
2	1954	4.357504823795	1.9911889903524
2	1968	4.357504870137	1.9911889902597
2	1975	4.367504870137	1.9911689902597
2	1976	4.391066789627	1.9911218664207
2	1978	4.391386789627	1.9911212264207
2	1979	4.391514789627	1.9911209704207
2	1980	4.391706789627	1.9911205864207
2	1997	4.391706995925	1.9911205860081
2	1998	4.391710328404	1.9911205526834
2	2047	4.392186995925	1.9911157860081
2	2054	4.402186995925	1.9910957860081
2	2055	4.445939064026	1.9910082818719
2	2057	4.447539064026	1.9910050818719
2	2058	4.447667064026	1.9910048258719
2	2059	4.447859064026	1.9910044418719
2	2077	4.447859244428	1.9910044415111
2	2077	4.447862186772	1.9910044120877
2	2129	4.448339244428	1.9909996415111
2	2133	4.458339244428	1.9909796415111
2	2134	4.515224933624	1.9908658701327
2	2136	4.515544933624	1.9908652301327
2	2137	4.515672933624	1.9908649741327
2	2138	4.515864933624	1.9908645901327
2	2154	4.515865133762	1.9908645897325
2	2156	4.515868520266	1.9908645558674
2	2203	4.516345133762	1.9908597897325
2	2208	4.516345157386	1.9908597896852
2	2212	4.526345157386	1.9908397896852
2	2213	4.580330491066	1.9907318190179
2	2215	4.581930491066	1.9907286190179
2	2216	4.582058491066	1.9907283630179
2	2217	4.582250491066	1.9907279790179
2	2223	4.582250561826	1.9907279788763
2	2235	4.582253810429	1.9907279463903
2	2252	4.582730561826	1.9907231788763
2	2284	4.582730697364	1.9907231786053
2	2291	4.592730697364	1.9907031786053
2	2292	4.593291342258	1.9907020573155
2	2295	4.593419342258	1.9907018013155
2	2296	4.593611342258	1.9907014173155
2	2310	4.593611483777	1.9907014170324
2	2314	4.593616011315	1.9907013717571
2	2355	4.594091483777	1.9906966170324
2	2366	4.59409152266	1.9906966169547
2	2370	4.60409152266	1.9906766169547
2	2371	4.755773067474	1.990373253865
2	2373	4.756093067474	1.990372613865
2	2374	4.756221067474	1.990372357865
2	2375	4.756413067474	1.990371973865
2	2376	4.756413117509	1.990371973765
2	2393	4.756416706354	1.9903719378765
2	2395	4.756893117509	1.990367173765
2	2445	4.756893291236	1.9903671734175
2	2449	4.766893291236	1.9903471734175
2	2450	4.825422286987	1.990230115426
2	2452	4.826702286987	1.990227555426
2	2453	4.826830286987	1.990227299426
2	2454	4.827022286987	1.990226915426
2	2472	4.827026616265	1.9902264824982
2	2473	4.827502286987	1.990178915426
2	2524	4.827502556432	1.9901789148871
2	2528	4.837502556432	1.9901589148871
2	2529	5	1.98983392
3	0	0	0
3	0	0	0
3	0	0	0
3	0	0	0
3	0	0	0
3	2372	4.755773067474	1
3	2374	4.756221067474	0
4	0	0	0
4	0	0	0
4	0	0	0
4	0	0	0
4	0	0	0
4	2372	4.755773067474	0
4	2374	4.756221067474	0
5	0	0	2
5	1	0.307842850685	1.9993843142986
5	3	0.309122850685	1.9993817542986
5	4	0.309250850685	1.9993814982986
5	5	0.309442850685	1.9993811142986
5	17	0.309442962566	1.9993811140749
5	23	0.309445701537	1.9993810866852
5	58	0.309922962566	1.9993763140749
5	72	0.309923008908	1.9993763139822
5	79	0.319923008908	1.9993563139822
5	80	0.580330491066	1.9988354990179
5	82	0.582570491066	1.9988310190179
5	83	0.582698491066	1.9988307630179
5	84	0.582890491066	1.9988303790179
5	85	0.582890541101	1.9988303789178
5	102	0.5828961212	1.9988303231168
5	104	0.583370541101	1.9988255789178
5	151	0.583370697364	1.9988255786053
5	158	0.593291342258	1.9988057373155
5	160	0.593370697364	1.9988055786053
5	161	0.594891342258	1.9988025373155
5	162	0.595019342258	1.9988022813155
5	163	0.595211342258	1.9988018973155
5	173	0.595211454139	1.9988018970917
5	181	0.595216217974	1.9988018494534
5	210	0.595691454139	1.9987970970917
5	233	0.59569152266	1.9987970969547
5	237	0.60569152266	1.9987770969547
5	238	1.305690288544	1.9973770994229
5	241	1.305818288544	1.9973768434229
5	242	1.306010288544	1.9973764594229
5	257	1.306010468946	1.9973764590621
5	260	1.306013813171	1.9973764256199
5	304	1.306490468946	1.9973716590621
5	312	1.306490512306	1.9973716589754
5	316	1.316490512306	1.9973516589754
5	317	1.521035671234	1.9969425686575
5	319	1.521995671234	1.9969406486575
5	320	1.522123671234	1.9969403926575
5	321	1.522315671234	1.9969400086575
5	328	1.522315771303	1.9969400084574
5	339	1.522318560747	1.996939980563
5	359	1.522795771303	1.9969352084574
5	391	1.522795851636	1.9969352082967
5	395	1.532795851636	1.9969152082967
5	396	1.590058326721	1.9968006833466
5	398	1.591018326721	1.9967987633466
5	399	1.591146326721	1.9967985073466
5	400	1.591338326721	1.9967981233466
5	402	1.591338376756	1.9967981232465
5	418	1.591341082005	1.996798096194
5	423	1.591818376756	1.9967933232465
5	470	1.591818507123	1.9967933229858
5	474	1.601818507123	1.9967733229858
5	475	2.166322469711	1.9956443150606
5	477	2.167282469711	1.9956423950606
5	478	2.167410469711	1.9956421390606
5	479	2.167602469711	1.9956417550606
5	483	2.167602540471	1.9956417549191
5	497	2.167606658791	1.9956417137359
5	508	2.168082540471	1.9956369549191
5	546	2.168082724838	1.9956369545503
5	553	2.178082724838	1.9956169545503
5	554	2.204026222229	1.9955650675555
5	556	2.206266222229	1.9955605875555
5	557	2.206394222229	1.9955603315555
5	558	2.206586222229	1.9955599475555
5	565	2.206586322298	1.9955599473554
5	576	2.206592079029	1.9955598897881
5	596	2.207066322298	1.9955551473554
5	628	2.207066445991	1.995555147108
5	632	2.217066445991	1.995535147108
5	633	2.307842850685	1.9953535942986
5	635	2.308162850685	1.9953529542986
5	636	2.308290850685	1.9953526982986
5	637	2.308482850685	1.9953523142986
5	649	2.308482962566	1.9953523140749
5	655	2.308485402059	1.9953522896799
5	690	2.308962962566	1.9953475140749
5	704	2.308963008908	1.9953475139822
5	711	2.318963008908	1.9953275139822
5	712	2.327867031097	1.9953097059378
5	714	2.328827031097	1.9953077859378
5	715	2.328955031097	1.9953075299378
5	716	2.329147031097	1.9953071459378
5	730	2.329147237395	1.9953071455252
5	734	2.329153944173	1.9953070784574
5	775	2.329627237395	1.9953023455252
5	783	2.329627286224	1.9953023454276
5	790	2.339627286224	1.9952823454276
5	791	2.391066789627	1.9951794664207
5	793	2.392666789627	1.9951762664207
5	794	2.392794789627	1.9951760104207
5	795	2.392986789627	1.9951756264207
5	809	2.39298694785	1.9951756261043
5	813	2.392990289849	1.9951755926843
5	854	2.39346694785	1.9951708261043
5	862	2.393466995925	1.9951708260081
5	869	2.403466995925	1.9951508260081
5	870	2.515224933624	1.9949273101328
5	872	2.515864933624	1.9949260301328
5	873	2.515992933624	1.9949257741328
5	874	2.516184933624	1.9949253901328
5	887	2.516185083728	1.9949253898325
5	892	2.516188766434	1.9949253530055
5	930	2.516665083728	1.9949205898325
5	944	2.516665157386	1.9949205896852
5	948	2.526665157386	1.9949005896852
5	949	2.580330491066	1.9947932590179
5	951	2.581610491066	1.9947906990179
5	952	2.581738491066	1.9947904430179
5	953	2.581930491066	1.9947900590179
5	954	2.581930541101	1.9947900589178
5	971	2.58193375459	1.9947900267829
5	973	2.582410541101	1.9947852589178
5	1020	2.582410697364	1.9947852586053
5	1027	2.592410697364	1.9947652586053
5	1028	2.593291342258	1.9947634973155
5	1030	2.595531342258	1.9947590173155
5	1031	2.595659342258	1.9947587613155
5	1032	2.595851342258	1.9947583773155
5	1042	2.595851454139	1.9947583770917
5	1050	2.595856045261	1.9947583311805
5	1079	2.596331454139	1.9947535770917
5	1102	2.59633152266	1.9947535769547
5	1106	2.60633152266	1.9947335769547
5	1107	3.305690288544	1.9933348594229
5	1109	3.307610288544	1.9933310194229
5	1110	3.307738288544	1.9933307634229
5	1111	3.307930288544	1.9933303794229
5	1126	3.307930468946	1.9933303790621
5	1129	3.307933958549	1.9933303441661
5	1173	3.308410468946	1.9933255790621
5	1181	3.308410512306	1.9933255789754
5	1185	3.318410512306	1.9933055789754
5	1186	3.372630119324	1.9931971397614
5	1189	3.372758119324	1.9931968837614
5	1190	3.372950119324	1.9931964997614
5	1203	3.372950319462	1.9931964993611
5	1208	3.372954402743	1.9931964585283
5	1246	3.373430319462	1.9931916993611
5	1260	3.373430388769	1.9931916992225
5	1264	3.383430388769	1.9931716992225
5	1265	3.521035671234	1.9928964886575
5	1268	3.521163671234	1.9928962326575
5	1269	3.521355671234	1.9928958486575
5	1276	3.521355771303	1.9928958484574
5	1287	3.521358607708	1.9928958200933
5	1307	3.521835771303	1.9928910484574
5	1339	3.521835851636	1.9928910482967
5	1343	3.531835851636	1.9928710482967
5	1344	3.590058326721	1.9927546033466
5	1346	3.591338326721	1.9927520433466
5	1347	3.591466326721	1.9927517873466
5	1348	3.591658326721	1.9927514033466
5	1350	3.591658376756	1.9927514032465
5	1366	3.591661078061	1.9927513762334
5	1371	3.592138376756	1.9927466032465
5	1418	3.592138507123	1.9927466029858
5	1422	3.602138507123	1.9927266029858
5	1423	3.658893585205	1.9926130928296
5	1425	3.659533585205	1.9926118128296
5	1426	3.659661585205	1.9926115568296
5	1427	3.659853585205	1.9926111728296
5	1433	3.659853697086	1.9926111726058
5	1445	3.659857903649	1.9926111305402
5	1462	3.660333697086	1.9926063726058
5	1497	3.66033385465	1.9926063722907
5	1501	3.67033385465	1.9925863722907
5	1502	3.946533203125	1.9920339735937
5	1504	3.946853203125	1.9920333335937
5	1505	3.946981203125	1.9920330775937
5	1506	3.947173203125	1.9920326935937
5	1521	3.947173426887	1.9920326931462
5	1524	3.947177501253	1.9920326524026
5	1568	3.947653426887	1.9920278931462
5	1576	3.94765347257	1.9920278930549
5	1580	3.95765347257	1.9920078930549
5	1581	4.166322469711	1.9915905550606
5	1583	4.168242469711	1.9915867150606
5	1584	4.168370469711	1.9915864590606
5	1585	4.168562469711	1.9915860750606
5	1589	4.168562540471	1.9915860749191
5	1603	4.16856649963	1.9915860353275
5	1614	4.169042540471	1.9915812749191
5	1652	4.169042724838	1.9915812745503
5	1659	4.179042724838	1.9915612745503
5	1660	4.204026222229	1.9915113075555
5	1662	4.206266222229	1.9915068275555
5	1663	4.206394222229	1.9915065715555
5	1664	4.206586222229	1.9915061875555
5	1671	4.206586322298	1.9915061873554
5	1682	4.206592003341	1.991506130545
5	1702	4.207066322298	1.9915013873554
5	1734	4.207066445991	1.991501387108
5	1738	4.217066445991	1.991481387108
5	1739	4.307842850685	1.9912998342986
5	1741	4.310082850685	1.9912953542986
5	1742	4.310210850685	1.9912950982986
5	1743	4.310402850685	1.9912947142986
5	1755	4.310402962566	1.9912947140749
5	1761	4.310405466908	1.9912946890314
5	1796	4.310882962566	1.9912899140749
5	1810	4.310883008908	1.9912899139822
5	1817	4.320883008908	1.9912699139822
5	1818	4.327867031097	1.9912559459378
5	1820	4.329787031097	1.9912521059378
5	1821	4.329915031097	1.9912518499378
5	1822	4.330107031097	1.9912514659378
5	1836	4.330107237395	1.9912514655252
5	1840	4.330111307071	1.9912514248284
5	1881	4.330587237395	1.9912466655252
5	1889	4.330587286224	1.9912466654276
5	1896	4.340587286224	1.9912266654276
5	1897	4.356704711914	1.9911944305762
5	1900	4.356832711914	1.9911941745762
5	1901	4.357024711914	1.9911937905762
5	1907	4.357024782674	1.9911937904347
5	1919	4.357028440455	1.9911937538568
5	1936	4.357504782674	1.9911889904347
5	1968	4.357504870137	1.9911889902597
5	1975	4.367504870137	1.9911689902597
5	1976	4.391066789627	1.9911218664207
5	1978	4.391386789627	1.9911212264207
5	1979	4.391514789627	1.9911209704207
5	1980	4.391706789627	1.9911205864207
5	1994	4.39170694785	1.9911205861043
5	1998	4.391710328404	1.9911205522988
5	2039	4.39218694785	1.9911157861043
5	2047	4.392186995925	1.9911157860081
5	2054	4.402186995925	1.9910957860081
5	2055	4.445939064026	1.9910082818719
5	2057	4.447539064026	1.9910050818719
5	2058	4.447667064026	1.9910048258719
5	2059	4.447859064026	1.9910044418719
5	2073	4.447859205545	1.9910044415889
5	2077	4.447862186772	1.9910044117766
5	2118	4.448339205545	1.9909996415889
5	2129	4.448339244428	1.9909996415111
5	2133	4.458339244428	1.9909796415111
5	2134	4.515224933624	1.9908658701328
5	2136	4.515544933624	1.9908652301328
5	2137	4.515672933624	1.9908649741328
5	2138	4.515864933624	1.9908645901328
5	2151	4.515865083728	1.9908645898325
5	2156	4.515868520266	1.9908645554672
5	2194	4.516345083728	1.9908597898325
5	2208	4.516345157386	1.9908597896852
5	2212	4.526345157386	1.9908397896852
5	2213	4.580330491066	1.9907318190179
5	2215	4.581930491066	1.9907286190179
5	2216	4.582058491066	1.9907283630179
5	2217	4.582250491066	1.9907279790179
5	2218	4.582250541101	1.9907279789178
5	2235	4.582253810429	1.9907279462245
5	2237	4.582730541101	1.9907231789178
5	2284	4.582730697364	1.9907231786053
5	2291	4.592730697364	1.9907031786053
5	2292	4.593291342258	1.9907020573155
5	2295	4.593419342258	1.9907018013155
5	2296	4.593611342258	1.9907014173155
[...]
176	1661	2.5	0
176	1661	2.6	0
176	1661	2.7	0
176	1661	2.8	0
176	1661	2.9	0
176	1661	3	0
176	1661	3.1	0
176	1661	3.2	0
176	1661	3.3	0
176	1661	3.4	0
176	1661	3.5	0
176	1661	3.6	0
176	1661	3.7	0
176	1661	3.8	0
176	1661	3.9	0
176	1661	4	0
176	1661	4.1	0
176	1661	4.2	0
176	2529	4.3	0
176	2529	4.4	0
176	2529	4.5	0
176	2529	4.6	0
176	2529	4.7	0
176	2529	4.8	0
176	2529	4.9	0
176	2529	5	0
177	557	2.206394222229	1
177	558	2.206586222229	2
177	577	2.207066222229	1
177	577	2.207066222229	0
177	1663	4.206394222229	1
177	1664	4.206586222229	2
177	1683	4.207066222229	1
177	1683	4.207066222229	0
178	557	2.206394222229	0.002368
178	1663	4.206394222229	0.002368
179	557	2.206394222229	0
179	1663	4.206394222229	0
180	557	0.1	0
180	557	0.2	0
180	557	0.3	0
180	557	0.4	0
180	557	0.5	0
180	557	0.6	0
180	557	0.7	0
180	557	0.8	0
180	557	0.9	0
180	557	1	0
180	557	1.1	0
180	557	1.2	0
180	557	1.3	0
180	557	1.4	0
180	557	1.5	0
180	557	1.6	0
180	557	1.7	0
180	557	1.8	0
180	557	1.9	0
180	557	2	0
180	557	2.1	0
180	557	2.2	0
180	1663	2.3	0
180	1663	2.4	0
180	1663	2.5	0
180	1663	2.6	0
180	1663	2.7	0
180	1663	2.8	0
180	1663	2.9	0
180	1663	3	0
180	1663	3.1	0
180	1663	3.2	0
180	1663	3.3	0
180	1663	3.4	0
180	1663	3.5	0
180	1663	3.6	0
180	1663	3.7	0
180	1663	3.8	0
180	1663	3.9	0
180	1663	4	0
180	1663	4.1	0
180	1663	4.2	0
180	2529	4.3	0
180	2529	4.4	0
180	2529	4.5	0
180	2529	4.6	0
180	2529	4.7	0
180	2529	4.8	0
180	2529	4.9	0
180	2529	5	0
181	713	2.327867031097	0
181	1819	4.327867031097	0
182	713	0.1	0
182	713	0.2	0
182	713	0.3	0
182	713	0.4	0
182	713	0.5	0
182	713	0.6	0
182	713	0.7	0
182	713	0.8	0
182	713	0.9	0
182	713	1	0
182	713	1.1	0
182	713	1.2	0
182	713	1.3	0
182	713	1.4	0
182	713	1.5	0
182	713	1.6	0
182	713	1.7	0
182	713	1.8	0
182	713	1.9	0
182	713	2	0
182	713	2.1	0
182	713	2.2	0
182	713	2.3	0
182	1819	2.4	0
182	1819	2.5	0
182	1819	2.6	0
182	1819	2.7	0
182	1819	2.8	0
182	1819	2.9	0
182	1819	3	0
182	1819	3.1	0
182	1819	3.2	0
182	1819	3.3	0
182	1819	3.4	0
182	1819	3.5	0
182	1819	3.6	0
182	1819	3.7	0
182	1819	3.8	0
182	1819	3.9	0
182	1819	4	0
182	1819	4.1	0
182	1819	4.2	0
182	1819	4.3	0
182	2529	4.4	0
182	2529	4.5	0
182	2529	4.6	0
182	2529	4.7	0
182	2529	4.8	0
182	2529	4.9	0
182	2529	5	0
183	715	2.328955031097	1
183	716	2.329147031097	2
183	735	2.329627031097	1
183	735	2.329627031097	0
183	1821	4.329915031097	1
183	1822	4.330107031097	2
183	1841	4.330587031097	1
183	1841	4.330587031097	0
184	715	2.328955031097	0.001088
184	1821	4.329915031097	0.002048
185	715	2.328955031097	0
185	1821	4.329915031097	0
186	715	0.1	0
186	715	0.2	0
186	715	0.3	0
186	715	0.4	0
186	715	0.5	0
186	715	0.6	0
186	715	0.7	0
186	715	0.8	0
186	715	0.9	0
186	715	1	0
186	715	1.1	0
186	715	1.2	0
186	715	1.3	0
186	715	1.4	0
186	715	1.5	0
186	715	1.6	0
186	715	1.7	0
186	715	1.8	0
186	715	1.9	0
186	715	2	0
186	715	2.1	0
186	715	2.2	0
186	715	2.3	0
186	1821	2.4	0
186	1821	2.5	0
186	1821	2.6	0
186	1821	2.7	0
186	1821	2.8	0
186	1821	2.9	0
186	1821	3	0
186	1821	3.1	0
186	1821	3.2	0
186	1821	3.3	0
186	1821	3.4	0
186	1821	3.5	0
186	1821	3.6	0
186	1821	3.7	0
186	1821	3.8	0
186	1821	3.9	0
186	1821	4	0
186	1821	4.1	0
186	1821	4.2	0
186	1821	4.3	0
186	2529	4.4	0
186	2529	4.5	0
186	2529	4.6	0
186	2529	4.7	0
186	2529	4.8	0
186	2529	4.9	0
186	2529	5	0
187	792	2.391066789627	0
187	1977	4.391066789627	0
188	792	0.1	0
188	792	0.2	0
188	792	0.3	0
188	792	0.4	0
188	792	0.5	0
188	792	0.6	0
188	792	0.7	0
188	792	0.8	0
188	792	0.9	0
188	792	1	0
188	792	1.1	0
188	792	1.2	0
188	792	1.3	0
188	792	1.4	0
188	792	1.5	0
188	792	1.6	0
188	792	1.7	0
188	792	1.8	0
188	792	1.9	0
188	792	2	0
188	792	2.1	0
188	792	2.2	0
188	792	2.3	0
188	1977	2.4	0
188	1977	2.5	0
188	1977	2.6	0
188	1977	2.7	0
188	1977	2.8	0
188	1977	2.9	0
188	1977	3	0
188	1977	3.1	0
188	1977	3.2	0
188	1977	3.3	0
188	1977	3.4	0
188	1977	3.5	0
188	1977	3.6	0
188	1977	3.7	0
188	1977	3.8	0
188	1977	3.9	0
188	1977	4	0
188	1977	4.1	0
188	1977	4.2	0
188	1977	4.3	0
188	2529	4.4	0
188	2529	4.5	0
188	2529	4.6	0
188	2529	4.7	0
188	2529	4.8	0
188	2529	4.9	0
188	2529	5	0
189	794	2.392794789627	1
189	795	2.392986789627	2
189	814	2.393466789627	1
189	814	2.393466789627	0
189	1979	4.391514789627	1
189	1980	4.391706789627	2
189	1999	4.392186789627	1
189	1999	4.392186789627	0
190	794	2.392794789627	0.001728
190	1979	4.391514789627	0.000448
191	794	2.392794789627	0
191	1979	4.391514789627	0
192	794	0.1	0
192	794	0.2	0
192	794	0.3	0
192	794	0.4	0
192	794	0.5	0
192	794	0.6	0
192	794	0.7	0
192	794	0.8	0
192	794	0.9	0
192	794	1	0
192	794	1.1	0
192	794	1.2	0
192	794	1.3	0
192	794	1.4	0
192	794	1.5	0
192	794	1.6	0
192	794	1.7	0
192	794	1.8	0
192	794	1.9	0
192	794	2	0
192	794	2.1	0
192	794	2.2	0
192	794	2.3	0
192	1979	2.4	0
192	1979	2.5	0
192	1979	2.6	0
192	1979	2.7	0
192	1979	2.8	0
192	1979	2.9	0
192	1979	3	0
192	1979	3.1	0
192	1979	3.2	0
192	1979	3.3	0
192	1979	3.4	0
192	1979	3.5	0
192	1979	3.6	0
192	1979	3.7	0
192	1979	3.8	0
192	1979	3.9	0
192	1979	4	0
192	1979	4.1	0
192	1979	4.2	0
192	1979	4.3	0
192	2529	4.4	0
192	2529	4.5	0
192	2529	4.6	0
192	2529	4.7	0
192	2529	4.8	0
192	2529	4.9	0
192	2529	5	0
193	871	2.515224933624	0
193	2135	4.515224933624	0
194	871	0.1	0
194	871	0.2	0
194	871	0.3	0
194	871	0.4	0
194	871	0.5	0
194	871	0.6	0
194	871	0.7	0
194	871	0.8	0
194	871	0.9	0
194	871	1	0
194	871	1.1	0
194	871	1.2	0
194	871	1.3	0
194	871	1.4	0
194	871	1.5	0
194	871	1.6	0
194	871	1.7	0
194	871	1.8	0
194	871	1.9	0
194	871	2	0
194	871	2.1	0
194	871	2.2	0
194	871	2.3	0
194	871	2.4	0
194	871	2.5	0
194	2135	2.6	0
194	2135	2.7	0
194	2135	2.8	0
194	2135	2.9	0
194	2135	3	0
194	2135	3.1	0
194	2135	3.2	0
194	2135	3.3	0
194	2135	3.4	0
194	2135	3.5	0
194	2135	3.6	0
194	2135	3.7	0
194	2135	3.8	0
194	2135	3.9	0
194	2135	4	0
194	2135	4.1	0
194	2135	4.2	0
194	2135	4.3	0
194	2135	4.4	0
194	2135	4.5	0
194	2529	4.6	0
194	2529	4.7	0
194	2529	4.8	0
194	2529	4.9	0
194	2529	5	0
195	873	2.515992933624	1
195	874	2.516184933624	2
195	893	2.516664933624	1
195	893	2.516664933624	0
195	2137	4.515672933624	1
195	2138	4.515864933624	2
195	2157	4.516344933624	1
195	2157	4.516344933624	0
196	873	2.515992933624	0.000768
196	2137	4.515672933624	0.000448
197	873	2.515992933624	0
197	2137	4.515672933624	0
198	873	0.1	0
198	873	0.2	0
198	873	0.3	0
198	873	0.4	0
198	873	0.5	0
198	873	0.6	0
198	873	0.7	0
198	873	0.8	0
198	873	0.9	0
198	873	1	0
198	873	1.1	0
198	873	1.2	0
198	873	1.3	0
198	873	1.4	0
198	873	1.5	0
198	873	1.6	0
198	873	1.7	0
198	873	1.8	0
198	873	1.9	0
198	873	2	0
198	873	2.1	0
198	873	2.2	0
198	873	2.3	0
198	873	2.4	0
198	873	2.5	0
198	2137	2.6	0
198	2137	2.7	0
198	2137	2.8	0
198	2137	2.9	0
198	2137	3	0
198	2137	3.1	0
198	2137	3.2	0
198	2137	3.3	0
198	2137	3.4	0
198	2137	3.5	0
198	2137	3.6	0
198	2137	3.7	0
198	2137	3.8	0
198	2137	3.9	0
198	2137	4	0
198	2137	4.1	0
198	2137	4.2	0
198	2137	4.3	0
198	2137	4.4	0
198	2137	4.5	0
198	2529	4.6	0
198	2529	4.7	0
198	2529	4.8	0
198	2529	4.9	0
198	2529	5	0
199	1187	3.372630119324	0
200	1187	0.1	0
200	1187	0.2	0
200	1187	0.3	0
200	1187	0.4	0
200	1187	0.5	0
200	1187	0.6	0
200	1187	0.7	0
200	1187	0.8	0
200	1187	0.9	0
200	1187	1	0
200	1187	1.1	0
200	1187	1.2	0
200	1187	1.3	0
200	1187	1.4	0
200	1187	1.5	0
200	1187	1.6	0
200	1187	1.7	0
200	1187	1.8	0
200	1187	1.9	0
200	1187	2	0
200	1187	2.1	0
200	1187	2.2	0
200	1187	2.3	0
200	1187	2.4	0
200	1187	2.5	0
200	1187	2.6	0
200	1187	2.7	0
200	1187	2.8	0
200	1187	2.9	0
200	1187	3	0
200	1187	3.1	0
200	1187	3.2	0
200	1187	3.3	0
200	2529	3.4	0
200	2529	3.5	0
200	2529	3.6	0
200	2529	3.7	0
200	2529	3.8	0
200	2529	3.9	0
200	2529	4	0
200	2529	4.1	0
200	2529	4.2	0
200	2529	4.3	0
200	2529	4.4	0
200	2529	4.5	0
200	2529	4.6	0
200	2529	4.7	0
200	2529	4.8	0
200	2529	4.9	0
200	2529	5	0
201	1189	3.372758119324	1
201	1190	3.372950119324	2
201	1209	3.373430119324	1
201	1209	3.373430119324	0
202	1189	3.372758119324	0.000128
203	1189	3.372758119324	0
204	1189	0.1	0
204	1189	0.2	0
204	1189	0.3	0
204	1189	0.4	0
204	1189	0.5	0
204	1189	0.6	0
204	1189	0.7	0
204	1189	0.8	0
204	1189	0.9	0
204	1189	1	0
204	1189	1.1	0
204	1189	1.2	0
204	1189	1.3	0
204	1189	1.4	0
204	1189	1.5	0
204	1189	1.6	0
204	1189	1.7	0
204	1189	1.8	0
204	1189	1.9	0
204	1189	2	0
204	1189	2.1	0
204	1189	2.2	0
204	1189	2.3	0
204	1189	2.4	0
204	1189	2.5	0
204	1189	2.6	0
204	1189	2.7	0
204	1189	2.8	0
204	1189	2.9	0
204	1189	3	0
204	1189	3.1	0
204	1189	3.2	0
204	1189	3.3	0
204	2529	3.4	0
204	2529	3.5	0
204	2529	3.6	0
204	2529	3.7	0
204	2529	3.8	0
204	2529	3.9	0
204	2529	4	0
204	2529	4.1	0
204	2529	4.2	0
204	2529	4.3	0
204	2529	4.4	0
204	2529	4.5	0
204	2529	4.6	0
204	2529	4.7	0
204	2529	4.8	0
204	2529	4.9	0
204	2529	5	0
205	1424	3.658893585205	0
206	1424	0.1	0
206	1424	0.2	0
206	1424	0.3	0
206	1424	0.4	0
206	1424	0.5	0
206	1424	0.6	0
206	1424	0.7	0
206	1424	0.8	0
206	1424	0.9	0
206	1424	1	0
206	1424	1.1	0
206	1424	1.2	0
206	1424	1.3	0
206	1424	1.4	0
206	1424	1.5	0
206	1424	1.6	0
206	1424	1.7	0
206	1424	1.8	0
206	1424	1.9	0
206	1424	2	0
206	1424	2.1	0
206	1424	2.2	0
206	1424	2.3	0
206	1424	2.4	0
206	1424	2.5	0
206	1424	2.6	0
206	1424	2.7	0
206	1424	2.8	0
206	1424	2.9	0
206	1424	3	0
206	1424	3.1	0
206	1424	3.2	0
206	1424	3.3	0
206	1424	3.4	0
206	1424	3.5	0
206	1424	3.6	0
206	2529	3.7	0
206	2529	3.8	0
206	2529	3.9	0
206	2529	4	0
206	2529	4.1	0
206	2529	4.2	0
206	2529	4.3	0
206	2529	4.4	0
206	2529	4.5	0
206	2529	4.6	0
206	2529	4.7	0
206	2529	4.8	0
206	2529	4.9	0
206	2529	5	0
207	1426	3.659661585205	1
207	1427	3.659853585205	2
207	1446	3.660333585205	1
207	1446	3.660333585205	0
208	1426	3.659661585205	0.000768
209	1426	3.659661585205	0
210	1426	0.1	0
210	1426	0.2	0
210	1426	0.3	0
210	1426	0.4	0
210	1426	0.5	0
210	1426	0.6	0
210	1426	0.7	0
210	1426	0.8	0
210	1426	0.9	0
210	1426	1	0
210	1426	1.1	0
210	1426	1.2	0
210	1426	1.3	0
210	1426	1.4	0
210	1426	1.5	0
210	1426	1.6	0
210	1426	1.7	0
210	1426	1.8	0
210	1426	1.9	0
210	1426	2	0
210	1426	2.1	0
210	1426	2.2	0
210	1426	2.3	0
210	1426	2.4	0
210	1426	2.5	0
210	1426	2.6	0
210	1426	2.7	0
210	1426	2.8	0
210	1426	2.9	0
210	1426	3	0
210	1426	3.1	0
210	1426	3.2	0
210	1426	3.3	0
210	1426	3.4	0
210	1426	3.5	0
210	1426	3.6	0
210	2529	3.7	0
210	2529	3.8	0
210	2529	3.9	0
210	2529	4	0
210	2529	4.1	0
210	2529	4.2	0
210	2529	4.3	0
210	2529	4.4	0
210	2529	4.5	0
210	2529	4.6	0
210	2529	4.7	0
210	2529	4.8	0
210	2529	4.9	0
210	2529	5	0
211	1503	3.946533203125	0
212	1503	0.1	0
212	1503	0.2	0
212	1503	0.3	0
212	1503	0.4	0
212	1503	0.5	0
212	1503	0.6	0
212	1503	0.7	0
212	1503	0.8	0
212	1503	0.9	0
212	1503	1	0
212	1503	1.1	0
212	1503	1.2	0
212	1503	1.3	0
212	1503	1.4	0
212	1503	1.5	0
212	1503	1.6	0
212	1503	1.7	0
212	1503	1.8	0
212	1503	1.9	0
212	1503	2	0
212	1503	2.1	0
212	1503	2.2	0
212	1503	2.3	0
212	1503	2.4	0
212	1503	2.5	0
212	1503	2.6	0
212	1503	2.7	0
212	1503	2.8	0
212	1503	2.9	0
212	1503	3	0
212	1503	3.1	0
212	1503	3.2	0
212	1503	3.3	0
212	1503	3.4	0
212	1503	3.5	0
212	1503	3.6	0
212	1503	3.7	0
212	1503	3.8	0
212	1503	3.9	0
212	2529	4	0
212	2529	4.1	0
212	2529	4.2	0
212	2529	4.3	0
212	2529	4.4	0
212	2529	4.5	0
212	2529	4.6	0
212	2529	4.7	0
212	2529	4.8	0
212	2529	4.9	0
212	2529	5	0
213	1505	3.946981203125	1
213	1506	3.947173203125	2
213	1525	3.947653203125	1
213	1525	3.947653203125	0
214	1505	3.946981203125	0.000448
215	1505	3.946981203125	0
216	1505	0.1	0
216	1505	0.2	0
216	1505	0.3	0
216	1505	0.4	0
216	1505	0.5	0
216	1505	0.6	0
216	1505	0.7	0
216	1505	0.8	0
216	1505	0.9	0
216	1505	1	0
216	1505	1.1	0
216	1505	1.2	0
216	1505	1.3	0
216	1505	1.4	0
216	1505	1.5	0
216	1505	1.6	0
216	1505	1.7	0
216	1505	1.8	0
216	1505	1.9	0
216	1505	2	0
216	1505	2.1	0
216	1505	2.2	0
216	1505	2.3	0
216	1505	2.4	0
216	1505	2.5	0
216	1505	2.6	0
216	1505	2.7	0
216	1505	2.8	0
216	1505	2.9	0
216	1505	3	0
216	1505	3.1	0
216	1505	3.2	0
216	1505	3.3	0
216	1505	3.4	0
216	1505	3.5	0
216	1505	3.6	0
216	1505	3.7	0
216	1505	3.8	0
216	1505	3.9	0
216	2529	4	0
216	2529	4.1	0
216	2529	4.2	0
216	2529	4.3	0
216	2529	4.4	0
216	2529	4.5	0
216	2529	4.6	0
216	2529	4.7	0
216	2529	4.8	0
216	2529	4.9	0
216	2529	5	0
217	1898	4.356704711914	0
218	1898	0.1	0
218	1898	0.2	0
218	1898	0.3	0
218	1898	0.4	0
218	1898	0.5	0
218	1898	0.6	0
218	1898	0.7	0
218	1898	0.8	0
218	1898	0.9	0
218	1898	1	0
218	1898	1.1	0
218	1898	1.2	0
218	1898	1.3	0
218	1898	1.4	0
218	1898	1.5	0
218	1898	1.6	0
218	1898	1.7	0
218	1898	1.8	0
218	1898	1.9	0
218	1898	2	0
218	1898	2.1	0
218	1898	2.2	0
218	1898	2.3	0
218	1898	2.4	0
218	1898	2.5	0
218	1898	2.6	0
218	1898	2.7	0
218	1898	2.8	0
218	1898	2.9	0
218	1898	3	0
218	1898	3.1	0
218	1898	3.2	0
218	1898	3.3	0
218	1898	3.4	0
218	1898	3.5	0
218	1898	3.6	0
218	1898	3.7	0
218	1898	3.8	0
218	1898	3.9	0
218	1898	4	0
218	1898	4.1	0
218	1898	4.2	0
218	1898	4.3	0
218	2529	4.4	0
218	2529	4.5	0
218	2529	4.6	0
218	2529	4.7	0
218	2529	4.8	0
218	2529	4.9	0
218	2529	5	0
219	1900	4.356832711914	1
219	1901	4.357024711914	2
219	1920	4.357504711914	1
219	1920	4.357504711914	0
220	1900	4.356832711914	0.000128
221	1900	4.356832711914	0
222	1900	0.1	0
222	1900	0.2	0
222	1900	0.3	0
222	1900	0.4	0
222	1900	0.5	0
222	1900	0.6	0
222	1900	0.7	0
222	1900	0.8	0
222	1900	0.9	0
222	1900	1	0
222	1900	1.1	0
222	1900	1.2	0
222	1900	1.3	0
222	1900	1.4	0
222	1900	1.5	0
222	1900	1.6	0
222	1900	1.7	0
222	1900	1.8	0
222	1900	1.9	0
222	1900	2	0
222	1900	2.1	0
222	1900	2.2	0
222	1900	2.3	0
222	1900	2.4	0
222	1900	2.5	0
222	1900	2.6	0
222	1900	2.7	0
222	1900	2.8	0
222	1900	2.9	0
222	1900	3	0
222	1900	3.1	0
222	1900	3.2	0
222	1900	3.3	0
222	1900	3.4	0
222	1900	3.5	0
222	1900	3.6	0
222	1900	3.7	0
222	1900	3.8	0
222	1900	3.9	0
222	1900	4	0
222	1900	4.1	0
222	1900	4.2	0
222	1900	4.3	0
222	2529	4.4	0
222	2529	4.5	0
222	2529	4.6	0
222	2529	4.7	0
222	2529	4.8	0
222	2529	4.9	0
222	2529	5	0
223	2056	4.445939064026	0
224	2056	0.1	0
224	2056	0.2	0
224	2056	0.3	0
224	2056	0.4	0
224	2056	0.5	0
224	2056	0.6	0
224	2056	0.7	0
224	2056	0.8	0
224	2056	0.9	0
224	2056	1	0
224	2056	1.1	0
224	2056	1.2	0
224	2056	1.3	0
224	2056	1.4	0
224	2056	1.5	0
224	2056	1.6	0
224	2056	1.7	0
224	2056	1.8	0
224	2056	1.9	0
224	2056	2	0
224	2056	2.1	0
224	2056	2.2	0
224	2056	2.3	0
224	2056	2.4	0
224	2056	2.5	0
224	2056	2.6	0
224	2056	2.7	0
224	2056	2.8	0
224	2056	2.9	0
224	2056	3	0
224	2056	3.1	0
224	2056	3.2	0
224	2056	3.3	0
224	2056	3.4	0
224	2056	3.5	0
224	2056	3.6	0
224	2056	3.7	0
224	2056	3.8	0
224	2056	3.9	0
224	2056	4	0
224	2056	4.1	0
224	2056	4.2	0
224	2056	4.3	0
224	2056	4.4	0
224	2529	4.5	0
224	2529	4.6	0
224	2529	4.7	0
224	2529	4.8	0
224	2529	4.9	0
224	2529	5	0
225	2058	4.447667064026	1
225	2059	4.447859064026	2
225	2078	4.448339064026	1
225	2078	4.448339064026	0
226	2058	4.447667064026	0.001728
227	2058	4.447667064026	0
228	2058	0.1	0
228	2058	0.2	0
228	2058	0.3	0
228	2058	0.4	0
228	2058	0.5	0
228	2058	0.6	0
228	2058	0.7	0
228	2058	0.8	0
228	2058	0.9	0
228	2058	1	0
228	2058	1.1	0
228	2058	1.2	0
228	2058	1.3	0
228	2058	1.4	0
228	2058	1.5	0
228	2058	1.6	0
228	2058	1.7	0
228	2058	1.8	0
228	2058	1.9	0
228	2058	2	0
228	2058	2.1	0
228	2058	2.2	0
228	2058	2.3	0
228	2058	2.4	0
228	2058	2.5	0
228	2058	2.6	0
228	2058	2.7	0
228	2058	2.8	0
228	2058	2.9	0
228	2058	3	0
228	2058	3.1	0
228	2058	3.2	0
228	2058	3.3	0
228	2058	3.4	0
228	2058	3.5	0
228	2058	3.6	0
228	2058	3.7	0
228	2058	3.8	0
228	2058	3.9	0
228	2058	4	0
228	2058	4.1	0
228	2058	4.2	0
228	2058	4.3	0
228	2058	4.4	0
228	2529	4.5	0
228	2529	4.6	0
228	2529	4.7	0
228	2529	4.8	0
228	2529	4.9	0
228	2529	5	0
229	2372	4.755773067474	0
230	2372	0.1	0
230	2372	0.2	0
230	2372	0.3	0
230	2372	0.4	0
230	2372	0.5	0
230	2372	0.6	0
230	2372	0.7	0
230	2372	0.8	0
230	2372	0.9	0
230	2372	1	0
230	2372	1.1	0
230	2372	1.2	0
230	2372	1.3	0
230	2372	1.4	0
230	2372	1.5	0
230	2372	1.6	0
230	2372	1.7	0
230	2372	1.8	0
230	2372	1.9	0
230	2372	2	0
230	2372	2.1	0
230	2372	2.2	0
230	2372	2.3	0
230	2372	2.4	0
230	2372	2.5	0
230	2372	2.6	0
230	2372	2.7	0
230	2372	2.8	0
230	2372	2.9	0
230	2372	3	0
230	2372	3.1	0
230	2372	3.2	0
230	2372	3.3	0
230	2372	3.4	0
230	2372	3.5	0
230	2372	3.6	0
230	2372	3.7	0
230	2372	3.8	0
230	2372	3.9	0
230	2372	4	0
230	2372	4.1	0
230	2372	4.2	0
230	2372	4.3	0
230	2372	4.4	0
230	2372	4.5	0
230	2372	4.6	0
230	2372	4.7	0
230	2529	4.8	0
230	2529	4.9	0
230	2529	5	0
231	2374	4.756221067474	1
231	2375	4.756413067474	2
231	2394	4.756893067474	1
231	2394	4.756893067474	0
232	2374	4.756221067474	0.000448
233	2374	4.756221067474	0
234	2374	0.1	0
234	2374	0.2	0
234	2374	0.3	0
234	2374	0.4	0
234	2374	0.5	0
234	2374	0.6	0
234	2374	0.7	0
234	2374	0.8	0
234	2374	0.9	0
234	2374	1	0
234	2374	1.1	0
234	2374	1.2	0
234	2374	1.3	0
234	2374	1.4	0
234	2374	1.5	0
234	2374	1.6	0
234	2374	1.7	0
234	2374	1.8	0
234	2374	1.9	0
234	2374	2	0
234	2374	2.1	0
234	2374	2.2	0
234	2374	2.3	0
234	2374	2.4	0
234	2374	2.5	0
234	2374	2.6	0
234	2374	2.7	0
234	2374	2.8	0
234	2374	2.9	0
234	2374	3	0
234	2374	3.1	0
234	2374	3.2	0
234	2374	3.3	0
234	2374	3.4	0
234	2374	3.5	0
234	2374	3.6	0
234	2374	3.7	0
234	2374	3.8	0
234	2374	3.9	0
234	2374	4	0
234	2374	4.1	0
234	2374	4.2	0
234	2374	4.3	0
234	2374	4.4	0
234	2374	4.5	0
234	2374	4.6	0
234	2374	4.7	0
234	2529	4.8	0
234	2529	4.9	0
234	2529	5	0
235	2451	4.825422286987	0
236	2451	0.1	0
236	2451	0.2	0
236	2451	0.3	0
236	2451	0.4	0
236	2451	0.5	0
236	2451	0.6	0
236	2451	0.7	0
236	2451	0.8	0
236	2451	0.9	0
236	2451	1	0
236	2451	1.1	0
236	2451	1.2	0
236	2451	1.3	0
236	2451	1.4	0
236	2451	1.5	0
236	2451	1.6	0
236	2451	1.7	0
236	2451	1.8	0
236	2451	1.9	0
236	2451	2	0
236	2451	2.1	0
236	2451	2.2	0
236	2451	2.3	0
236	2451	2.4	0
236	2451	2.5	0
236	2451	2.6	0
236	2451	2.7	0
236	2451	2.8	0
236	2451	2.9	0
236	2451	3	0
236	2451	3.1	0
236	2451	3.2	0
236	2451	3.3	0
236	2451	3.4	0
236	2451	3.5	0
236	2451	3.6	0
236	2451	3.7	0
236	2451	3.8	0
236	2451	3.9	0
236	2451	4	0
236	2451	4.1	0
236	2451	4.2	0
236	2451	4.3	0
236	2451	4.4	0
236	2451	4.5	0
236	2451	4.6	0
236	2451	4.7	0
236	2451	4.8	0
236	2529	4.9	0
236	2529	5	0
237	2453	4.826830286987	1
237	2454	4.827022286987	2
237	2473	4.827502286987	1
237	2473	4.827502286987	0
238	2453	4.826830286987	0.001408
239	2453	4.826830286987	0
240	2453	0.1	0
240	2453	0.2	0
240	2453	0.3	0
240	2453	0.4	0
240	2453	0.5	0
240	2453	0.6	0
240	2453	0.7	0
240	2453	0.8	0
240	2453	0.9	0
240	2453	1	0
240	2453	1.1	0
240	2453	1.2	0
240	2453	1.3	0
240	2453	1.4	0
240	2453	1.5	0
240	2453	1.6	0
240	2453	1.7	0
240	2453	1.8	0
240	2453	1.9	0
240	2453	2	0
240	2453	2.1	0
240	2453	2.2	0
240	2453	2.3	0
240	2453	2.4	0
240	2453	2.5	0
240	2453	2.6	0
240	2453	2.7	0
240	2453	2.8	0
240	2453	2.9	0
240	2453	3	0
240	2453	3.1	0
240	2453	3.2	0
240	2453	3.3	0
240	2453	3.4	0
240	2453	3.5	0
240	2453	3.6	0
240	2453	3.7	0
240	2453	3.8	0
240	2453	3.9	0
240	2453	4	0
240	2453	4.1	0
240	2453	4.2	0
240	2453	4.3	0
240	2453	4.4	0
240	2453	4.5	0
240	2453	4.6	0
240	2453	4.7	0
240	2453	4.8	0
240	2529	4.9	0
240	2529	5	0
241	2529	0.1	0
241	2529	0.2	0
241	2529	0.3	0
241	2529	0.4	0
241	2529	0.5	0
241	2529	0.6	0
241	2529	0.7	0
241	2529	0.8	0
241	2529	0.9	0
241	2529	1	0
241	2529	1.1	0
241	2529	1.2	0
241	2529	1.3	0
241	2529	1.4	0
241	2529	1.5	0
241	2529	1.6	0
241	2529	1.7	0
241	2529	1.8	0
241	2529	1.9	0
241	2529	2	0
241	2529	2.1	0
241	2529	2.2	0
241	2529	2.3	0
241	2529	2.4	0
241	2529	2.5	0
241	2529	2.6	0
241	2529	2.7	0
241	2529	2.8	0
241	2529	2.9	0
241	2529	3	0
241	2529	3.1	0
241	2529	3.2	0
241	2529	3.3	0
241	2529	3.4	0
241	2529	3.5	0
241	2529	3.6	0
241	2529	3.7	0
241	2529	3.8	0
241	2529	3.9	0
241	2529	4	0
241	2529	4.1	0
241	2529	4.2	0
241	2529	4.3	0
241	2529	4.4	0
241	2529	4.5	0
241	2529	4.6	0
241	2529	4.7	0
241	2529	4.8	0
241	2529	4.9	0
241	2529	5	0
242	2529	0.1	0
242	2529	0.2	0
242	2529	0.3	0
242	2529	0.4	0
242	2529	0.5	0
242	2529	0.6	0
242	2529	0.7	0
242	2529	0.8	0
242	2529	0.9	0
242	2529	1	0
242	2529	1.1	0
242	2529	1.2	0
242	2529	1.3	0
242	2529	1.4	0
242	2529	1.5	0
242	2529	1.6	0
242	2529	1.7	0
242	2529	1.8	0
242	2529	1.9	0
242	2529	2	0
242	2529	2.1	0
242	2529	2.2	0
242	2529	2.3	0
242	2529	2.4	0
242	2529	2.5	0
242	2529	2.6	0
242	2529	2.7	0
242	2529	2.8	0
242	2529	2.9	0
242	2529	3	0
242	2529	3.1	0
242	2529	3.2	0
242	2529	3.3	0
242	2529	3.4	0
242	2529	3.5	0
242	2529	3.6	0
242	2529	3.7	0
242	2529	3.8	0
242	2529	3.9	0
242	2529	4	0
242	2529	4.1	0
242	2529	4.2	0
242	2529	4.3	0
242	2529	4.4	0
242	2529	4.5	0
242	2529	4.6	0
242	2529	4.7	0
242	2529	4.8	0
242	2529	4.9	0
242	2529	5	0

