version 3
run General-0-20231130-13:35:14-14928
attr configname General
attr datetime 20231130-13:35:14
attr datetimef 20231130-133514
attr experiment General
attr inifile rede2.ini
attr iterationvars ""
attr iterationvarsd ""
attr iterationvarsf ""
attr measurement ""
attr network rede02
attr processid 14928
attr repetition 0
attr replication #0
attr resultdir results
attr runnumber 0
attr seedset 0
config image-path ../../inet4.5/images
config network rede02
config sim-time-limit 50s
config *.*.wlan.interfaceTableModule "\"\""
config *.nodo*.energyStorage.nominalCapacity 2J
config *.*.wlan.radio.energyConsumer.typename StateBasedEpEnergyConsumer
config *.*.wlan.radio.energyConsumer.sleepPowerConsumption 1mW
config *.*.wlan.radio.energyConsumer.receiverIdlePowerConsumption 2mW
config *.*.wlan.radio.energyConsumer.receiverBusyPowerConsumption 5mW
config *.*.wlan.radio.energyConsumer.receiverReceivingPowerConsumption 10mW
config *.*.wlan.radio.energyConsumer.transmitterIdlePowerConsumption 2mW
config *.*.wlan.radio.energyConsumer.transmitterTransmittingPowerConsumption 100mW
config *.nodo0.mobility.initialX 15m
config *.nodo0.mobility.initialY 15m
config *.nodo0.mobility.initialZ 2m
config *.nodo1.mobility.initialX 30m
config *.nodo1.mobility.initialY 15m
config *.nodo1.mobility.initialZ 2m
config *.nodo2.mobility.initialX 45m
config *.nodo2.mobility.initialY 15m
config *.nodo2.mobility.initialZ 2m
config *.nodo3.mobility.initialX 15m
config *.nodo3.mobility.initialY 30m
config *.nodo3.mobility.initialZ 2m
config *.nodo4.mobility.initialX 30m
config *.nodo4.mobility.initialY 30m
config *.nodo4.mobility.initialZ 2m
config *.nodo5.mobility.initialX 45m
config *.nodo5.mobility.initialY 30m
config *.nodo5.mobility.initialZ 2m
config *.nodo6.mobility.initialX 15m
config *.nodo6.mobility.initialY 45m
config *.nodo6.mobility.initialZ 2m
config *.nodo7.mobility.initialX 30m
config *.nodo7.mobility.initialY 45m
config *.nodo7.mobility.initialZ 2m
config *.nodo8.mobility.initialX 45m
config *.nodo8.mobility.initialY 45m
config *.nodo8.mobility.initialZ 2m
config *.nodo9.mobility.initialX 60m
config *.nodo9.mobility.initialY 15m
config *.nodo9.mobility.initialZ 2m
config *.nodo10.mobility.initialX 75m
config *.nodo10.mobility.initialY 15m
config *.nodo10.mobility.initialZ 2m
config *.nodo11.mobility.initialX 90m
config *.nodo11.mobility.initialY 15m
config *.nodo11.mobility.initialZ 2m
config *.nodo12.mobility.initialX 60m
config *.nodo12.mobility.initialY 30m
config *.nodo12.mobility.initialZ 2m
config *.nodo13.mobility.initialX 75m
config *.nodo13.mobility.initialY 30m
config *.nodo13.mobility.initialZ 2m
config *.nodo14.mobility.initialX 90m
config *.nodo14.mobility.initialY 30m
config *.nodo14.mobility.initialZ 2m
config *.nodo15.mobility.initialX 60m
config *.nodo15.mobility.initialY 45m
config *.nodo15.mobility.initialZ 2m
config *.nodo16.mobility.initialX 75m
config *.nodo16.mobility.initialY 45m
config *.nodo16.mobility.initialZ 2m
config *.nodo17.mobility.initialX 90m
config *.nodo17.mobility.initialY 45m
config *.nodo17.mobility.initialZ 2m
config *.nodo18.mobility.initialX 45m
config *.nodo18.mobility.initialY 22.5m
config *.nodo18.mobility.initialZ 2m
config *.nodo0.app.numero 0
config *.nodo0.app.sink false
config *.nodo1.app.numero 1
config *.nodo1.app.sink false
config *.nodo2.app.numero 2
config *.nodo2.app.sink false
config *.nodo3.app.numero 3
config *.nodo3.app.sink false
config *.nodo4.app.numero 4
config *.nodo4.app.sink false
config *.nodo5.app.numero 5
config *.nodo5.app.sink false
config *.nodo6.app.numero 6
config *.nodo6.app.sink false
config *.nodo7.app.numero 7
config *.nodo7.app.sink false
config *.nodo8.app.numero 8
config *.nodo8.app.sink false
config *.nodo9.app.numero 9
config *.nodo9.app.sink false
config *.nodo10.app.numero 10
config *.nodo10.app.sink false
config *.nodo11.app.numero 11
config *.nodo11.app.sink false
config *.nodo12.app.numero 12
config *.nodo12.app.sink false
config *.nodo13.app.numero 13
config *.nodo13.app.sink false
config *.nodo14.app.numero 14
config *.nodo14.app.sink false
config *.nodo15.app.numero 15
config *.nodo15.app.sink false
config *.nodo16.app.numero 16
config *.nodo16.app.sink false
config *.nodo17.app.numero 17
config *.nodo17.app.sink false
config *.nodo18.app.numero 18
config *.nodo18.app.sink true

vector 0 rede02.nodo0.wlan.queue queueLength:vector ETV
attr autoWarmupFilter false
attr interpolationmode sample-hold
attr recordingmode vector
attr source "warmup(atomic(constant0(packetPushEnded) + count(packetPushStarted) - count(packetPulled) - count(packetRemoved) - count(packetDropped)))"
attr title "queue length"
attr unit pk
vector 1 rede02.nodo0.wlan.queue queueBitLength:vector ETV
attr autoWarmupFilter false
attr interpolationmode sample-hold
attr recordingmode vector
attr source "warmup(atomic(constant0(packetPushEnded) + sum(packetLength(packetPushStarted)) - sum(packetLength(packetPulled)) - sum(packetLength(packetRemoved)) - sum(packetLength(packetDropped))))"
attr title "queue bit length"
attr unit b
vector 2 rede02.nodo0.energyStorage residualEnergyCapacity:vector ETV
attr interpolationmode linear
attr recordingmode vector
attr source residualEnergyCapacityChanged
attr title "Residual energy capacity"
attr unit J
vector 3 rede02.nodo1.wlan.queue queueLength:vector ETV
attr autoWarmupFilter false
attr interpolationmode sample-hold
attr recordingmode vector
attr source "warmup(atomic(constant0(packetPushEnded) + count(packetPushStarted) - count(packetPulled) - count(packetRemoved) - count(packetDropped)))"
attr title "queue length"
attr unit pk
vector 4 rede02.nodo1.wlan.queue queueBitLength:vector ETV
attr autoWarmupFilter false
attr interpolationmode sample-hold
attr recordingmode vector
attr source "warmup(atomic(constant0(packetPushEnded) + sum(packetLength(packetPushStarted)) - sum(packetLength(packetPulled)) - sum(packetLength(packetRemoved)) - sum(packetLength(packetDropped))))"
attr title "queue bit length"
attr unit b
vector 5 rede02.nodo1.energyStorage residualEnergyCapacity:vector ETV
attr interpolationmode linear
attr recordingmode vector
attr source residualEnergyCapacityChanged
attr title "Residual energy capacity"
attr unit J
vector 6 rede02.nodo2.wlan.queue queueLength:vector ETV
attr autoWarmupFilter false
attr interpolationmode sample-hold
attr recordingmode vector
attr source "warmup(atomic(constant0(packetPushEnded) + count(packetPushStarted) - count(packetPulled) - count(packetRemoved) - count(packetDropped)))"
attr title "queue length"
attr unit pk
vector 7 rede02.nodo2.wlan.queue queueBitLength:vector ETV
attr autoWarmupFilter false
attr interpolationmode sample-hold
attr recordingmode vector
attr source "warmup(atomic(constant0(packetPushEnded) + sum(packetLength(packetPushStarted)) - sum(packetLength(packetPulled)) - sum(packetLength(packetRemoved)) - sum(packetLength(packetDropped))))"
attr title "queue bit length"
attr unit b
vector 8 rede02.nodo2.energyStorage residualEnergyCapacity:vector ETV
attr interpolationmode linear
attr recordingmode vector
attr source residualEnergyCapacityChanged
attr title "Residual energy capacity"
attr unit J
vector 9 rede02.nodo3.wlan.queue queueLength:vector ETV
attr autoWarmupFilter false
attr interpolationmode sample-hold
attr recordingmode vector
attr source "warmup(atomic(constant0(packetPushEnded) + count(packetPushStarted) - count(packetPulled) - count(packetRemoved) - count(packetDropped)))"
attr title "queue length"
attr unit pk
vector 10 rede02.nodo3.wlan.queue queueBitLength:vector ETV
attr autoWarmupFilter false
attr interpolationmode sample-hold
attr recordingmode vector
attr source "warmup(atomic(constant0(packetPushEnded) + sum(packetLength(packetPushStarted)) - sum(packetLength(packetPulled)) - sum(packetLength(packetRemoved)) - sum(packetLength(packetDropped))))"
attr title "queue bit length"
attr unit b
vector 11 rede02.nodo3.energyStorage residualEnergyCapacity:vector ETV
attr interpolationmode linear
attr recordingmode vector
attr source residualEnergyCapacityChanged
attr title "Residual energy capacity"
attr unit J
vector 12 rede02.nodo4.wlan.queue queueLength:vector ETV
attr autoWarmupFilter false
attr interpolationmode sample-hold
attr recordingmode vector
attr source "warmup(atomic(constant0(packetPushEnded) + count(packetPushStarted) - count(packetPulled) - count(packetRemoved) - count(packetDropped)))"
attr title "queue length"
attr unit pk
vector 13 rede02.nodo4.wlan.queue queueBitLength:vector ETV
attr autoWarmupFilter false
attr interpolationmode sample-hold
attr recordingmode vector
attr source "warmup(atomic(constant0(packetPushEnded) + sum(packetLength(packetPushStarted)) - sum(packetLength(packetPulled)) - sum(packetLength(packetRemoved)) - sum(packetLength(packetDropped))))"
attr title "queue bit length"
attr unit b
vector 14 rede02.nodo4.energyStorage residualEnergyCapacity:vector ETV
attr interpolationmode linear
attr recordingmode vector
attr source residualEnergyCapacityChanged
attr title "Residual energy capacity"
attr unit J
vector 15 rede02.nodo5.wlan.queue queueLength:vector ETV
attr autoWarmupFilter false
attr interpolationmode sample-hold
attr recordingmode vector
attr source "warmup(atomic(constant0(packetPushEnded) + count(packetPushStarted) - count(packetPulled) - count(packetRemoved) - count(packetDropped)))"
attr title "queue length"
attr unit pk
vector 16 rede02.nodo5.wlan.queue queueBitLength:vector ETV
attr autoWarmupFilter false
attr interpolationmode sample-hold
attr recordingmode vector
attr source "warmup(atomic(constant0(packetPushEnded) + sum(packetLength(packetPushStarted)) - sum(packetLength(packetPulled)) - sum(packetLength(packetRemoved)) - sum(packetLength(packetDropped))))"
attr title "queue bit length"
attr unit b
vector 17 rede02.nodo5.energyStorage residualEnergyCapacity:vector ETV
attr interpolationmode linear
attr recordingmode vector
attr source residualEnergyCapacityChanged
attr title "Residual energy capacity"
attr unit J
vector 18 rede02.nodo6.wlan.queue queueLength:vector ETV
attr autoWarmupFilter false
attr interpolationmode sample-hold
attr recordingmode vector
attr source "warmup(atomic(constant0(packetPushEnded) + count(packetPushStarted) - count(packetPulled) - count(packetRemoved) - count(packetDropped)))"
attr title "queue length"
attr unit pk
vector 19 rede02.nodo6.wlan.queue queueBitLength:vector ETV
attr autoWarmupFilter false
attr interpolationmode sample-hold
attr recordingmode vector
attr source "warmup(atomic(constant0(packetPushEnded) + sum(packetLength(packetPushStarted)) - sum(packetLength(packetPulled)) - sum(packetLength(packetRemoved)) - sum(packetLength(packetDropped))))"
attr title "queue bit length"
attr unit b
vector 20 rede02.nodo6.energyStorage residualEnergyCapacity:vector ETV
attr interpolationmode linear
attr recordingmode vector
attr source residualEnergyCapacityChanged
attr title "Residual energy capacity"
attr unit J
vector 21 rede02.nodo7.wlan.queue queueLength:vector ETV
attr autoWarmupFilter false
attr interpolationmode sample-hold
attr recordingmode vector
attr source "warmup(atomic(constant0(packetPushEnded) + count(packetPushStarted) - count(packetPulled) - count(packetRemoved) - count(packetDropped)))"
attr title "queue length"
attr unit pk
vector 22 rede02.nodo7.wlan.queue queueBitLength:vector ETV
attr autoWarmupFilter false
attr interpolationmode sample-hold
attr recordingmode vector
attr source "warmup(atomic(constant0(packetPushEnded) + sum(packetLength(packetPushStarted)) - sum(packetLength(packetPulled)) - sum(packetLength(packetRemoved)) - sum(packetLength(packetDropped))))"
attr title "queue bit length"
attr unit b
vector 23 rede02.nodo7.energyStorage residualEnergyCapacity:vector ETV
attr interpolationmode linear
attr recordingmode vector
attr source residualEnergyCapacityChanged
attr title "Residual energy capacity"
attr unit J
vector 24 rede02.nodo8.wlan.queue queueLength:vector ETV
attr autoWarmupFilter false
attr interpolationmode sample-hold
attr recordingmode vector
attr source "warmup(atomic(constant0(packetPushEnded) + count(packetPushStarted) - count(packetPulled) - count(packetRemoved) - count(packetDropped)))"
attr title "queue length"
attr unit pk
vector 25 rede02.nodo8.wlan.queue queueBitLength:vector ETV
attr autoWarmupFilter false
attr interpolationmode sample-hold
attr recordingmode vector
attr source "warmup(atomic(constant0(packetPushEnded) + sum(packetLength(packetPushStarted)) - sum(packetLength(packetPulled)) - sum(packetLength(packetRemoved)) - sum(packetLength(packetDropped))))"
attr title "queue bit length"
attr unit b
vector 26 rede02.nodo8.energyStorage residualEnergyCapacity:vector ETV
attr interpolationmode linear
attr recordingmode vector
attr source residualEnergyCapacityChanged
attr title "Residual energy capacity"
attr unit J
vector 27 rede02.nodo9.wlan.queue queueLength:vector ETV
attr autoWarmupFilter false
attr interpolationmode sample-hold
attr recordingmode vector
attr source "warmup(atomic(constant0(packetPushEnded) + count(packetPushStarted) - count(packetPulled) - count(packetRemoved) - count(packetDropped)))"
attr title "queue length"
attr unit pk
vector 28 rede02.nodo9.wlan.queue queueBitLength:vector ETV
attr autoWarmupFilter false
attr interpolationmode sample-hold
attr recordingmode vector
attr source "warmup(atomic(constant0(packetPushEnded) + sum(packetLength(packetPushStarted)) - sum(packetLength(packetPulled)) - sum(packetLength(packetRemoved)) - sum(packetLength(packetDropped))))"
attr title "queue bit length"
attr unit b
vector 29 rede02.nodo9.energyStorage residualEnergyCapacity:vector ETV
attr interpolationmode linear
attr recordingmode vector
attr source residualEnergyCapacityChanged
attr title "Residual energy capacity"
attr unit J
vector 30 rede02.nodo10.wlan.queue queueLength:vector ETV
attr autoWarmupFilter false
attr interpolationmode sample-hold
attr recordingmode vector
attr source "warmup(atomic(constant0(packetPushEnded) + count(packetPushStarted) - count(packetPulled) - count(packetRemoved) - count(packetDropped)))"
attr title "queue length"
attr unit pk
vector 31 rede02.nodo10.wlan.queue queueBitLength:vector ETV
attr autoWarmupFilter false
attr interpolationmode sample-hold
attr recordingmode vector
attr source "warmup(atomic(constant0(packetPushEnded) + sum(packetLength(packetPushStarted)) - sum(packetLength(packetPulled)) - sum(packetLength(packetRemoved)) - sum(packetLength(packetDropped))))"
attr title "queue bit length"
attr unit b
vector 32 rede02.nodo10.energyStorage residualEnergyCapacity:vector ETV
attr interpolationmode linear
attr recordingmode vector
attr source residualEnergyCapacityChanged
attr title "Residual energy capacity"
attr unit J
vector 33 rede02.nodo11.wlan.queue queueLength:vector ETV
attr autoWarmupFilter false
attr interpolationmode sample-hold
attr recordingmode vector
attr source "warmup(atomic(constant0(packetPushEnded) + count(packetPushStarted) - count(packetPulled) - count(packetRemoved) - count(packetDropped)))"
attr title "queue length"
attr unit pk
vector 34 rede02.nodo11.wlan.queue queueBitLength:vector ETV
attr autoWarmupFilter false
attr interpolationmode sample-hold
attr recordingmode vector
attr source "warmup(atomic(constant0(packetPushEnded) + sum(packetLength(packetPushStarted)) - sum(packetLength(packetPulled)) - sum(packetLength(packetRemoved)) - sum(packetLength(packetDropped))))"
attr title "queue bit length"
attr unit b
vector 35 rede02.nodo11.energyStorage residualEnergyCapacity:vector ETV
attr interpolationmode linear
attr recordingmode vector
attr source residualEnergyCapacityChanged
attr title "Residual energy capacity"
attr unit J
vector 36 rede02.nodo12.wlan.queue queueLength:vector ETV
attr autoWarmupFilter false
attr interpolationmode sample-hold
attr recordingmode vector
attr source "warmup(atomic(constant0(packetPushEnded) + count(packetPushStarted) - count(packetPulled) - count(packetRemoved) - count(packetDropped)))"
attr title "queue length"
attr unit pk
vector 37 rede02.nodo12.wlan.queue queueBitLength:vector ETV
attr autoWarmupFilter false
attr interpolationmode sample-hold
attr recordingmode vector
attr source "warmup(atomic(constant0(packetPushEnded) + sum(packetLength(packetPushStarted)) - sum(packetLength(packetPulled)) - sum(packetLength(packetRemoved)) - sum(packetLength(packetDropped))))"
attr title "queue bit length"
attr unit b
vector 38 rede02.nodo12.energyStorage residualEnergyCapacity:vector ETV
attr interpolationmode linear
attr recordingmode vector
attr source residualEnergyCapacityChanged
attr title "Residual energy capacity"
attr unit J
vector 39 rede02.nodo13.wlan.queue queueLength:vector ETV
attr autoWarmupFilter false
attr interpolationmode sample-hold
attr recordingmode vector
attr source "warmup(atomic(constant0(packetPushEnded) + count(packetPushStarted) - count(packetPulled) - count(packetRemoved) - count(packetDropped)))"
attr title "queue length"
attr unit pk
vector 40 rede02.nodo13.wlan.queue queueBitLength:vector ETV
attr autoWarmupFilter false
attr interpolationmode sample-hold
attr recordingmode vector
attr source "warmup(atomic(constant0(packetPushEnded) + sum(packetLength(packetPushStarted)) - sum(packetLength(packetPulled)) - sum(packetLength(packetRemoved)) - sum(packetLength(packetDropped))))"
attr title "queue bit length"
attr unit b
vector 41 rede02.nodo13.energyStorage residualEnergyCapacity:vector ETV
attr interpolationmode linear
attr recordingmode vector
attr source residualEnergyCapacityChanged
attr title "Residual energy capacity"
attr unit J
vector 42 rede02.nodo14.wlan.queue queueLength:vector ETV
attr autoWarmupFilter false
attr interpolationmode sample-hold
attr recordingmode vector
attr source "warmup(atomic(constant0(packetPushEnded) + count(packetPushStarted) - count(packetPulled) - count(packetRemoved) - count(packetDropped)))"
attr title "queue length"
attr unit pk
vector 43 rede02.nodo14.wlan.queue queueBitLength:vector ETV
attr autoWarmupFilter false
attr interpolationmode sample-hold
attr recordingmode vector
attr source "warmup(atomic(constant0(packetPushEnded) + sum(packetLength(packetPushStarted)) - sum(packetLength(packetPulled)) - sum(packetLength(packetRemoved)) - sum(packetLength(packetDropped))))"
attr title "queue bit length"
attr unit b
vector 44 rede02.nodo14.energyStorage residualEnergyCapacity:vector ETV
attr interpolationmode linear
attr recordingmode vector
attr source residualEnergyCapacityChanged
attr title "Residual energy capacity"
attr unit J
vector 45 rede02.nodo15.wlan.queue queueLength:vector ETV
attr autoWarmupFilter false
attr interpolationmode sample-hold
attr recordingmode vector
attr source "warmup(atomic(constant0(packetPushEnded) + count(packetPushStarted) - count(packetPulled) - count(packetRemoved) - count(packetDropped)))"
attr title "queue length"
attr unit pk
vector 46 rede02.nodo15.wlan.queue queueBitLength:vector ETV
attr autoWarmupFilter false
attr interpolationmode sample-hold
attr recordingmode vector
attr source "warmup(atomic(constant0(packetPushEnded) + sum(packetLength(packetPushStarted)) - sum(packetLength(packetPulled)) - sum(packetLength(packetRemoved)) - sum(packetLength(packetDropped))))"
attr title "queue bit length"
attr unit b
vector 47 rede02.nodo15.energyStorage residualEnergyCapacity:vector ETV
attr interpolationmode linear
attr recordingmode vector
attr source residualEnergyCapacityChanged
attr title "Residual energy capacity"
attr unit J
vector 48 rede02.nodo16.wlan.queue queueLength:vector ETV
attr autoWarmupFilter false
attr interpolationmode sample-hold
attr recordingmode vector
attr source "warmup(atomic(constant0(packetPushEnded) + count(packetPushStarted) - count(packetPulled) - count(packetRemoved) - count(packetDropped)))"
attr title "queue length"
attr unit pk
vector 49 rede02.nodo16.wlan.queue queueBitLength:vector ETV
attr autoWarmupFilter false
attr interpolationmode sample-hold
attr recordingmode vector
attr source "warmup(atomic(constant0(packetPushEnded) + sum(packetLength(packetPushStarted)) - sum(packetLength(packetPulled)) - sum(packetLength(packetRemoved)) - sum(packetLength(packetDropped))))"
attr title "queue bit length"
attr unit b
vector 50 rede02.nodo16.energyStorage residualEnergyCapacity:vector ETV
attr interpolationmode linear
attr recordingmode vector
attr source residualEnergyCapacityChanged
attr title "Residual energy capacity"
attr unit J
vector 51 rede02.nodo17.wlan.queue queueLength:vector ETV
attr autoWarmupFilter false
attr interpolationmode sample-hold
attr recordingmode vector
attr source "warmup(atomic(constant0(packetPushEnded) + count(packetPushStarted) - count(packetPulled) - count(packetRemoved) - count(packetDropped)))"
attr title "queue length"
attr unit pk
vector 52 rede02.nodo17.wlan.queue queueBitLength:vector ETV
attr autoWarmupFilter false
attr interpolationmode sample-hold
attr recordingmode vector
attr source "warmup(atomic(constant0(packetPushEnded) + sum(packetLength(packetPushStarted)) - sum(packetLength(packetPulled)) - sum(packetLength(packetRemoved)) - sum(packetLength(packetDropped))))"
attr title "queue bit length"
attr unit b
vector 53 rede02.nodo17.energyStorage residualEnergyCapacity:vector ETV
attr interpolationmode linear
attr recordingmode vector
attr source residualEnergyCapacityChanged
attr title "Residual energy capacity"
attr unit J
vector 54 rede02.nodo18.wlan.queue queueLength:vector ETV
attr autoWarmupFilter false
attr interpolationmode sample-hold
attr recordingmode vector
attr source "warmup(atomic(constant0(packetPushEnded) + count(packetPushStarted) - count(packetPulled) - count(packetRemoved) - count(packetDropped)))"
attr title "queue length"
attr unit pk
vector 55 rede02.nodo18.wlan.queue queueBitLength:vector ETV
attr autoWarmupFilter false
attr interpolationmode sample-hold
attr recordingmode vector
attr source "warmup(atomic(constant0(packetPushEnded) + sum(packetLength(packetPushStarted)) - sum(packetLength(packetPulled)) - sum(packetLength(packetRemoved)) - sum(packetLength(packetDropped))))"
attr title "queue bit length"
attr unit b
vector 56 rede02.nodo18.energyStorage residualEnergyCapacity:vector ETV
attr interpolationmode linear
attr recordingmode vector
attr source residualEnergyCapacityChanged
attr title "Residual energy capacity"
attr unit J
vector 57 rede02.nodo0.energyStorage powerConsumption:vector ETV
attr interpolationmode sample-hold
attr recordingmode vector
attr source powerConsumptionChanged
attr title "Power consumption"
attr unit W
vector 58 rede02.nodo1.energyStorage powerConsumption:vector ETV
attr interpolationmode sample-hold
attr recordingmode vector
attr source powerConsumptionChanged
attr title "Power consumption"
attr unit W
vector 59 rede02.nodo2.energyStorage powerConsumption:vector ETV
attr interpolationmode sample-hold
attr recordingmode vector
attr source powerConsumptionChanged
attr title "Power consumption"
attr unit W
vector 60 rede02.nodo3.energyStorage powerConsumption:vector ETV
attr interpolationmode sample-hold
attr recordingmode vector
attr source powerConsumptionChanged
attr title "Power consumption"
attr unit W
vector 61 rede02.nodo4.energyStorage powerConsumption:vector ETV
attr interpolationmode sample-hold
attr recordingmode vector
attr source powerConsumptionChanged
attr title "Power consumption"
attr unit W
vector 62 rede02.nodo5.energyStorage powerConsumption:vector ETV
attr interpolationmode sample-hold
attr recordingmode vector
attr source powerConsumptionChanged
attr title "Power consumption"
attr unit W
vector 63 rede02.nodo6.energyStorage powerConsumption:vector ETV
attr interpolationmode sample-hold
attr recordingmode vector
attr source powerConsumptionChanged
attr title "Power consumption"
attr unit W
vector 64 rede02.nodo7.energyStorage powerConsumption:vector ETV
attr interpolationmode sample-hold
attr recordingmode vector
attr source powerConsumptionChanged
attr title "Power consumption"
attr unit W
vector 65 rede02.nodo8.energyStorage powerConsumption:vector ETV
attr interpolationmode sample-hold
attr recordingmode vector
attr source powerConsumptionChanged
attr title "Power consumption"
attr unit W
vector 66 rede02.nodo9.energyStorage powerConsumption:vector ETV
attr interpolationmode sample-hold
attr recordingmode vector
attr source powerConsumptionChanged
attr title "Power consumption"
attr unit W
vector 67 rede02.nodo10.energyStorage powerConsumption:vector ETV
attr interpolationmode sample-hold
attr recordingmode vector
attr source powerConsumptionChanged
attr title "Power consumption"
attr unit W
vector 68 rede02.nodo11.energyStorage powerConsumption:vector ETV
attr interpolationmode sample-hold
attr recordingmode vector
attr source powerConsumptionChanged
attr title "Power consumption"
attr unit W
vector 69 rede02.nodo12.energyStorage powerConsumption:vector ETV
attr interpolationmode sample-hold
attr recordingmode vector
attr source powerConsumptionChanged
attr title "Power consumption"
attr unit W
vector 70 rede02.nodo13.energyStorage powerConsumption:vector ETV
attr interpolationmode sample-hold
attr recordingmode vector
attr source powerConsumptionChanged
attr title "Power consumption"
attr unit W
vector 71 rede02.nodo14.energyStorage powerConsumption:vector ETV
attr interpolationmode sample-hold
attr recordingmode vector
attr source powerConsumptionChanged
attr title "Power consumption"
attr unit W
vector 72 rede02.nodo15.energyStorage powerConsumption:vector ETV
attr interpolationmode sample-hold
attr recordingmode vector
attr source powerConsumptionChanged
attr title "Power consumption"
attr unit W
vector 73 rede02.nodo16.energyStorage powerConsumption:vector ETV
attr interpolationmode sample-hold
attr recordingmode vector
attr source powerConsumptionChanged
attr title "Power consumption"
attr unit W
vector 74 rede02.nodo17.energyStorage powerConsumption:vector ETV
attr interpolationmode sample-hold
attr recordingmode vector
attr source powerConsumptionChanged
attr title "Power consumption"
attr unit W
vector 75 rede02.nodo18.energyStorage powerConsumption:vector ETV
attr interpolationmode sample-hold
attr recordingmode vector
attr source powerConsumptionChanged
attr title "Power consumption"
attr unit W
vector 76 rede02.nodo0.wlan.radio radioMode:vector ETV
attr interpolationmode sample-hold
attr recordingmode vector
attr source radioModeChanged
attr title "Radio mode"
vector 77 rede02.nodo0.wlan.radio.energyConsumer powerConsumption:vector ETV
attr interpolationmode sample-hold
attr recordingmode vector
attr source powerConsumptionChanged
attr title "Power consumption"
attr unit W
vector 78 rede02.nodo1.wlan.radio radioMode:vector ETV
attr interpolationmode sample-hold
attr recordingmode vector
attr source radioModeChanged
attr title "Radio mode"
vector 79 rede02.nodo1.wlan.radio.energyConsumer powerConsumption:vector ETV
attr interpolationmode sample-hold
attr recordingmode vector
attr source powerConsumptionChanged
attr title "Power consumption"
attr unit W
vector 80 rede02.nodo2.wlan.radio radioMode:vector ETV
attr interpolationmode sample-hold
attr recordingmode vector
attr source radioModeChanged
attr title "Radio mode"
vector 81 rede02.nodo2.wlan.radio.energyConsumer powerConsumption:vector ETV
attr interpolationmode sample-hold
attr recordingmode vector
attr source powerConsumptionChanged
attr title "Power consumption"
attr unit W
vector 82 rede02.nodo3.wlan.radio radioMode:vector ETV
attr interpolationmode sample-hold
attr recordingmode vector
attr source radioModeChanged
attr title "Radio mode"
vector 83 rede02.nodo3.wlan.radio.energyConsumer powerConsumption:vector ETV
attr interpolationmode sample-hold
attr recordingmode vector
attr source powerConsumptionChanged
attr title "Power consumption"
attr unit W
vector 84 rede02.nodo4.wlan.radio radioMode:vector ETV
attr interpolationmode sample-hold
attr recordingmode vector
attr source radioModeChanged
attr title "Radio mode"
vector 85 rede02.nodo4.wlan.radio.energyConsumer powerConsumption:vector ETV
attr interpolationmode sample-hold
attr recordingmode vector
attr source powerConsumptionChanged
attr title "Power consumption"
attr unit W
vector 86 rede02.nodo5.wlan.radio radioMode:vector ETV
attr interpolationmode sample-hold
attr recordingmode vector
attr source radioModeChanged
attr title "Radio mode"
vector 87 rede02.nodo5.wlan.radio.energyConsumer powerConsumption:vector ETV
attr interpolationmode sample-hold
attr recordingmode vector
attr source powerConsumptionChanged
attr title "Power consumption"
attr unit W
vector 88 rede02.nodo6.wlan.radio radioMode:vector ETV
attr interpolationmode sample-hold
attr recordingmode vector
attr source radioModeChanged
attr title "Radio mode"
vector 89 rede02.nodo6.wlan.radio.energyConsumer powerConsumption:vector ETV
attr interpolationmode sample-hold
attr recordingmode vector
attr source powerConsumptionChanged
attr title "Power consumption"
attr unit W
vector 90 rede02.nodo7.wlan.radio radioMode:vector ETV
attr interpolationmode sample-hold
attr recordingmode vector
attr source radioModeChanged
attr title "Radio mode"
vector 91 rede02.nodo7.wlan.radio.energyConsumer powerConsumption:vector ETV
attr interpolationmode sample-hold
attr recordingmode vector
attr source powerConsumptionChanged
attr title "Power consumption"
attr unit W
vector 92 rede02.nodo8.wlan.radio radioMode:vector ETV
attr interpolationmode sample-hold
attr recordingmode vector
attr source radioModeChanged
attr title "Radio mode"
vector 93 rede02.nodo8.wlan.radio.energyConsumer powerConsumption:vector ETV
attr interpolationmode sample-hold
attr recordingmode vector
attr source powerConsumptionChanged
attr title "Power consumption"
attr unit W
vector 94 rede02.nodo9.wlan.radio radioMode:vector ETV
attr interpolationmode sample-hold
attr recordingmode vector
attr source radioModeChanged
attr title "Radio mode"
vector 95 rede02.nodo9.wlan.radio.energyConsumer powerConsumption:vector ETV
attr interpolationmode sample-hold
attr recordingmode vector
attr source powerConsumptionChanged
attr title "Power consumption"
attr unit W
vector 96 rede02.nodo10.wlan.radio radioMode:vector ETV
attr interpolationmode sample-hold
attr recordingmode vector
attr source radioModeChanged
attr title "Radio mode"
vector 97 rede02.nodo10.wlan.radio.energyConsumer powerConsumption:vector ETV
attr interpolationmode sample-hold
attr recordingmode vector
attr source powerConsumptionChanged
attr title "Power consumption"
attr unit W
vector 98 rede02.nodo11.wlan.radio radioMode:vector ETV
attr interpolationmode sample-hold
attr recordingmode vector
attr source radioModeChanged
attr title "Radio mode"
vector 99 rede02.nodo11.wlan.radio.energyConsumer powerConsumption:vector ETV
attr interpolationmode sample-hold
attr recordingmode vector
attr source powerConsumptionChanged
attr title "Power consumption"
attr unit W
vector 100 rede02.nodo12.wlan.radio radioMode:vector ETV
attr interpolationmode sample-hold
attr recordingmode vector
attr source radioModeChanged
attr title "Radio mode"
vector 101 rede02.nodo12.wlan.radio.energyConsumer powerConsumption:vector ETV
attr interpolationmode sample-hold
attr recordingmode vector
attr source powerConsumptionChanged
attr title "Power consumption"
attr unit W
vector 102 rede02.nodo13.wlan.radio radioMode:vector ETV
attr interpolationmode sample-hold
attr recordingmode vector
attr source radioModeChanged
attr title "Radio mode"
vector 103 rede02.nodo13.wlan.radio.energyConsumer powerConsumption:vector ETV
attr interpolationmode sample-hold
attr recordingmode vector
attr source powerConsumptionChanged
attr title "Power consumption"
attr unit W
vector 104 rede02.nodo14.wlan.radio radioMode:vector ETV
attr interpolationmode sample-hold
attr recordingmode vector
attr source radioModeChanged
attr title "Radio mode"
vector 105 rede02.nodo14.wlan.radio.energyConsumer powerConsumption:vector ETV
attr interpolationmode sample-hold
attr recordingmode vector
attr source powerConsumptionChanged
attr title "Power consumption"
attr unit W
vector 106 rede02.nodo15.wlan.radio radioMode:vector ETV
attr interpolationmode sample-hold
attr recordingmode vector
attr source radioModeChanged
attr title "Radio mode"
vector 107 rede02.nodo15.wlan.radio.energyConsumer powerConsumption:vector ETV
attr interpolationmode sample-hold
attr recordingmode vector
attr source powerConsumptionChanged
attr title "Power consumption"
attr unit W
vector 108 rede02.nodo16.wlan.radio radioMode:vector ETV
attr interpolationmode sample-hold
attr recordingmode vector
attr source radioModeChanged
attr title "Radio mode"
vector 109 rede02.nodo16.wlan.radio.energyConsumer powerConsumption:vector ETV
attr interpolationmode sample-hold
attr recordingmode vector
attr source powerConsumptionChanged
attr title "Power consumption"
attr unit W
vector 110 rede02.nodo17.wlan.radio radioMode:vector ETV
attr interpolationmode sample-hold
attr recordingmode vector
attr source radioModeChanged
attr title "Radio mode"
vector 111 rede02.nodo17.wlan.radio.energyConsumer powerConsumption:vector ETV
attr interpolationmode sample-hold
attr recordingmode vector
attr source powerConsumptionChanged
attr title "Power consumption"
attr unit W
vector 112 rede02.nodo18.wlan.radio radioMode:vector ETV
attr interpolationmode sample-hold
attr recordingmode vector
attr source radioModeChanged
attr title "Radio mode"
vector 113 rede02.nodo18.wlan.radio.energyConsumer powerConsumption:vector ETV
attr interpolationmode sample-hold
attr recordingmode vector
attr source powerConsumptionChanged
attr title "Power consumption"
attr unit W
vector 114 rede02.nodo0.wlan.radio receptionState:vector ETV
attr interpolationmode sample-hold
attr recordingmode vector
attr source receptionStateChanged
attr title "Radio reception state"
vector 115 rede02.nodo1.wlan.radio receptionState:vector ETV
attr interpolationmode sample-hold
attr recordingmode vector
attr source receptionStateChanged
attr title "Radio reception state"
vector 116 rede02.nodo2.wlan.radio receptionState:vector ETV
attr interpolationmode sample-hold
attr recordingmode vector
attr source receptionStateChanged
attr title "Radio reception state"
vector 117 rede02.nodo3.wlan.radio receptionState:vector ETV
attr interpolationmode sample-hold
attr recordingmode vector
attr source receptionStateChanged
attr title "Radio reception state"
vector 118 rede02.nodo4.wlan.radio receptionState:vector ETV
attr interpolationmode sample-hold
attr recordingmode vector
attr source receptionStateChanged
attr title "Radio reception state"
vector 119 rede02.nodo5.wlan.radio receptionState:vector ETV
attr interpolationmode sample-hold
attr recordingmode vector
attr source receptionStateChanged
attr title "Radio reception state"
vector 120 rede02.nodo6.wlan.radio receptionState:vector ETV
attr interpolationmode sample-hold
attr recordingmode vector
attr source receptionStateChanged
attr title "Radio reception state"
vector 121 rede02.nodo7.wlan.radio receptionState:vector ETV
attr interpolationmode sample-hold
attr recordingmode vector
attr source receptionStateChanged
attr title "Radio reception state"
vector 122 rede02.nodo8.wlan.radio receptionState:vector ETV
attr interpolationmode sample-hold
attr recordingmode vector
attr source receptionStateChanged
attr title "Radio reception state"
vector 123 rede02.nodo9.wlan.radio receptionState:vector ETV
attr interpolationmode sample-hold
attr recordingmode vector
attr source receptionStateChanged
attr title "Radio reception state"
vector 124 rede02.nodo10.wlan.radio receptionState:vector ETV
attr interpolationmode sample-hold
attr recordingmode vector
attr source receptionStateChanged
attr title "Radio reception state"
vector 125 rede02.nodo11.wlan.radio receptionState:vector ETV
attr interpolationmode sample-hold
attr recordingmode vector
attr source receptionStateChanged
attr title "Radio reception state"
vector 126 rede02.nodo12.wlan.radio receptionState:vector ETV
attr interpolationmode sample-hold
attr recordingmode vector
attr source receptionStateChanged
attr title "Radio reception state"
vector 127 rede02.nodo13.wlan.radio receptionState:vector ETV
attr interpolationmode sample-hold
attr recordingmode vector
attr source receptionStateChanged
attr title "Radio reception state"
vector 128 rede02.nodo14.wlan.radio receptionState:vector ETV
attr interpolationmode sample-hold
attr recordingmode vector
attr source receptionStateChanged
attr title "Radio reception state"
vector 129 rede02.nodo15.wlan.radio receptionState:vector ETV
attr interpolationmode sample-hold
attr recordingmode vector
attr source receptionStateChanged
attr title "Radio reception state"
vector 130 rede02.nodo16.wlan.radio receptionState:vector ETV
attr interpolationmode sample-hold
attr recordingmode vector
attr source receptionStateChanged
attr title "Radio reception state"
vector 131 rede02.nodo17.wlan.radio receptionState:vector ETV
attr interpolationmode sample-hold
attr recordingmode vector
attr source receptionStateChanged
attr title "Radio reception state"
vector 132 rede02.nodo18.wlan.radio receptionState:vector ETV
attr interpolationmode sample-hold
attr recordingmode vector
attr source receptionStateChanged
attr title "Radio reception state"
vector 133 rede02.nodo0.wlan.queue incomingPacketLengths:vector ETV
attr interpolationmode none
attr recordingmode vector
attr source packetLength(packetPushStarted)
attr title "incoming packet lengths"
attr unit b
vector 134 rede02.nodo0.wlan.queue incomingDataRate:vector ETV
attr interpolationmode linear
attr recordingmode vector
attr source throughput(packetPushStarted)
attr title "incoming datarate"
attr unit bps
vector 135 rede02.nodo0.wlan.radio transmissionState:vector ETV
attr interpolationmode sample-hold
attr recordingmode vector
attr source transmissionStateChanged
attr title "Radio transmission state"
vector 136 rede02.nodo0.wlan.queue queueingTime:vector ETV
attr interpolationmode none
attr recordingmode vector
attr source queueingTime(packetPulled)
attr title "queueing times"
attr unit s
vector 137 rede02.nodo0.wlan.queue outgoingPacketLengths:vector ETV
attr interpolationmode none
attr recordingmode vector
attr source packetLength(packetPulled)
attr title "outgoing packet lengths"
attr unit b
vector 138 rede02.nodo0.wlan.queue outgoingDataRate:vector ETV
attr interpolationmode linear
attr recordingmode vector
attr source throughput(packetPulled)
attr title "outgoing datarate"
attr unit bps
vector 139 rede02.nodo1.wlan.queue incomingPacketLengths:vector ETV
attr interpolationmode none
attr recordingmode vector
attr source packetLength(packetPushStarted)
attr title "incoming packet lengths"
attr unit b
vector 140 rede02.nodo1.wlan.queue incomingDataRate:vector ETV
attr interpolationmode linear
attr recordingmode vector
attr source throughput(packetPushStarted)
attr title "incoming datarate"
attr unit bps
vector 141 rede02.nodo1.wlan.radio transmissionState:vector ETV
attr interpolationmode sample-hold
attr recordingmode vector
attr source transmissionStateChanged
attr title "Radio transmission state"
vector 142 rede02.nodo1.wlan.queue queueingTime:vector ETV
attr interpolationmode none
attr recordingmode vector
attr source queueingTime(packetPulled)
attr title "queueing times"
attr unit s
vector 143 rede02.nodo1.wlan.queue outgoingPacketLengths:vector ETV
attr interpolationmode none
attr recordingmode vector
attr source packetLength(packetPulled)
attr title "outgoing packet lengths"
attr unit b
vector 144 rede02.nodo1.wlan.queue outgoingDataRate:vector ETV
attr interpolationmode linear
attr recordingmode vector
attr source throughput(packetPulled)
attr title "outgoing datarate"
attr unit bps
vector 145 rede02.nodo2.wlan.queue incomingPacketLengths:vector ETV
attr interpolationmode none
attr recordingmode vector
attr source packetLength(packetPushStarted)
attr title "incoming packet lengths"
attr unit b
vector 146 rede02.nodo2.wlan.queue incomingDataRate:vector ETV
attr interpolationmode linear
attr recordingmode vector
attr source throughput(packetPushStarted)
attr title "incoming datarate"
attr unit bps
vector 147 rede02.nodo2.wlan.radio transmissionState:vector ETV
attr interpolationmode sample-hold
attr recordingmode vector
attr source transmissionStateChanged
attr title "Radio transmission state"
vector 148 rede02.nodo2.wlan.queue queueingTime:vector ETV
attr interpolationmode none
attr recordingmode vector
attr source queueingTime(packetPulled)
attr title "queueing times"
attr unit s
vector 149 rede02.nodo2.wlan.queue outgoingPacketLengths:vector ETV
attr interpolationmode none
attr recordingmode vector
attr source packetLength(packetPulled)
attr title "outgoing packet lengths"
attr unit b
vector 150 rede02.nodo2.wlan.queue outgoingDataRate:vector ETV
attr interpolationmode linear
attr recordingmode vector
attr source throughput(packetPulled)
attr title "outgoing datarate"
attr unit bps
vector 151 rede02.nodo3.wlan.queue incomingPacketLengths:vector ETV
attr interpolationmode none
attr recordingmode vector
attr source packetLength(packetPushStarted)
attr title "incoming packet lengths"
attr unit b
vector 152 rede02.nodo3.wlan.queue incomingDataRate:vector ETV
attr interpolationmode linear
attr recordingmode vector
attr source throughput(packetPushStarted)
attr title "incoming datarate"
attr unit bps
vector 153 rede02.nodo3.wlan.radio transmissionState:vector ETV
attr interpolationmode sample-hold
attr recordingmode vector
attr source transmissionStateChanged
attr title "Radio transmission state"
vector 154 rede02.nodo3.wlan.queue queueingTime:vector ETV
attr interpolationmode none
attr recordingmode vector
attr source queueingTime(packetPulled)
attr title "queueing times"
attr unit s
vector 155 rede02.nodo3.wlan.queue outgoingPacketLengths:vector ETV
attr interpolationmode none
attr recordingmode vector
attr source packetLength(packetPulled)
attr title "outgoing packet lengths"
attr unit b
vector 156 rede02.nodo3.wlan.queue outgoingDataRate:vector ETV
attr interpolationmode linear
attr recordingmode vector
attr source throughput(packetPulled)
attr title "outgoing datarate"
attr unit bps
vector 157 rede02.nodo4.wlan.queue incomingPacketLengths:vector ETV
attr interpolationmode none
attr recordingmode vector
attr source packetLength(packetPushStarted)
attr title "incoming packet lengths"
attr unit b
vector 158 rede02.nodo4.wlan.queue incomingDataRate:vector ETV
attr interpolationmode linear
attr recordingmode vector
attr source throughput(packetPushStarted)
attr title "incoming datarate"
attr unit bps
vector 159 rede02.nodo4.wlan.radio transmissionState:vector ETV
attr interpolationmode sample-hold
attr recordingmode vector
attr source transmissionStateChanged
attr title "Radio transmission state"
vector 160 rede02.nodo4.wlan.queue queueingTime:vector ETV
attr interpolationmode none
attr recordingmode vector
attr source queueingTime(packetPulled)
attr title "queueing times"
attr unit s
vector 161 rede02.nodo4.wlan.queue outgoingPacketLengths:vector ETV
attr interpolationmode none
attr recordingmode vector
attr source packetLength(packetPulled)
attr title "outgoing packet lengths"
attr unit b
vector 162 rede02.nodo4.wlan.queue outgoingDataRate:vector ETV
attr interpolationmode linear
attr recordingmode vector
attr source throughput(packetPulled)
attr title "outgoing datarate"
attr unit bps
vector 163 rede02.nodo5.wlan.queue incomingPacketLengths:vector ETV
attr interpolationmode none
attr recordingmode vector
attr source packetLength(packetPushStarted)
attr title "incoming packet lengths"
attr unit b
vector 164 rede02.nodo5.wlan.queue incomingDataRate:vector ETV
attr interpolationmode linear
attr recordingmode vector
attr source throughput(packetPushStarted)
attr title "incoming datarate"
attr unit bps
vector 165 rede02.nodo5.wlan.radio transmissionState:vector ETV
attr interpolationmode sample-hold
attr recordingmode vector
attr source transmissionStateChanged
attr title "Radio transmission state"
vector 166 rede02.nodo5.wlan.queue queueingTime:vector ETV
attr interpolationmode none
attr recordingmode vector
attr source queueingTime(packetPulled)
attr title "queueing times"
attr unit s
vector 167 rede02.nodo5.wlan.queue outgoingPacketLengths:vector ETV
attr interpolationmode none
attr recordingmode vector
attr source packetLength(packetPulled)
attr title "outgoing packet lengths"
attr unit b
vector 168 rede02.nodo5.wlan.queue outgoingDataRate:vector ETV
attr interpolationmode linear
attr recordingmode vector
attr source throughput(packetPulled)
attr title "outgoing datarate"
attr unit bps
vector 169 rede02.nodo3.wlan.mac packetDropIncorrectlyReceived:vector(packetBytes) ETV
attr interpolationmode none
attr recordingmode vector(packetBytes)
attr source packetDropReasonIsIncorrectlyReceived(packetDropped)
attr title "packet drop: incorrectly received, packetBytes"
vector 170 rede02.nodo0.wlan.mac packetDropIncorrectlyReceived:vector(packetBytes) ETV
attr interpolationmode none
attr recordingmode vector(packetBytes)
attr source packetDropReasonIsIncorrectlyReceived(packetDropped)
attr title "packet drop: incorrectly received, packetBytes"
vector 171 rede02.nodo6.wlan.queue incomingPacketLengths:vector ETV
attr interpolationmode none
attr recordingmode vector
attr source packetLength(packetPushStarted)
attr title "incoming packet lengths"
attr unit b
vector 172 rede02.nodo6.wlan.queue incomingDataRate:vector ETV
attr interpolationmode linear
attr recordingmode vector
attr source throughput(packetPushStarted)
attr title "incoming datarate"
attr unit bps
vector 173 rede02.nodo6.wlan.radio transmissionState:vector ETV
attr interpolationmode sample-hold
attr recordingmode vector
attr source transmissionStateChanged
attr title "Radio transmission state"
vector 174 rede02.nodo6.wlan.queue queueingTime:vector ETV
attr interpolationmode none
attr recordingmode vector
attr source queueingTime(packetPulled)
attr title "queueing times"
attr unit s
vector 175 rede02.nodo6.wlan.queue outgoingPacketLengths:vector ETV
attr interpolationmode none
attr recordingmode vector
attr source packetLength(packetPulled)
attr title "outgoing packet lengths"
attr unit b
vector 176 rede02.nodo6.wlan.queue outgoingDataRate:vector ETV
attr interpolationmode linear
attr recordingmode vector
attr source throughput(packetPulled)
attr title "outgoing datarate"
attr unit bps
vector 177 rede02.nodo7.wlan.queue incomingPacketLengths:vector ETV
attr interpolationmode none
attr recordingmode vector
attr source packetLength(packetPushStarted)
attr title "incoming packet lengths"
attr unit b
vector 178 rede02.nodo7.wlan.queue incomingDataRate:vector ETV
attr interpolationmode linear
attr recordingmode vector
attr source throughput(packetPushStarted)
attr title "incoming datarate"
attr unit bps
vector 179 rede02.nodo7.wlan.radio transmissionState:vector ETV
attr interpolationmode sample-hold
attr recordingmode vector
attr source transmissionStateChanged
attr title "Radio transmission state"
vector 180 rede02.nodo7.wlan.queue queueingTime:vector ETV
attr interpolationmode none
attr recordingmode vector
attr source queueingTime(packetPulled)
attr title "queueing times"
attr unit s
vector 181 rede02.nodo7.wlan.queue outgoingPacketLengths:vector ETV
attr interpolationmode none
attr recordingmode vector
attr source packetLength(packetPulled)
attr title "outgoing packet lengths"
attr unit b
vector 182 rede02.nodo7.wlan.queue outgoingDataRate:vector ETV
attr interpolationmode linear
attr recordingmode vector
attr source throughput(packetPulled)
attr title "outgoing datarate"
attr unit bps
vector 183 rede02.nodo4.wlan.mac packetDropIncorrectlyReceived:vector(packetBytes) ETV
attr interpolationmode none
attr recordingmode vector(packetBytes)
attr source packetDropReasonIsIncorrectlyReceived(packetDropped)
attr title "packet drop: incorrectly received, packetBytes"
vector 184 rede02.nodo8.wlan.queue incomingPacketLengths:vector ETV
attr interpolationmode none
attr recordingmode vector
attr source packetLength(packetPushStarted)
attr title "incoming packet lengths"
attr unit b
vector 185 rede02.nodo8.wlan.queue incomingDataRate:vector ETV
attr interpolationmode linear
attr recordingmode vector
attr source throughput(packetPushStarted)
attr title "incoming datarate"
attr unit bps
vector 186 rede02.nodo8.wlan.radio transmissionState:vector ETV
attr interpolationmode sample-hold
attr recordingmode vector
attr source transmissionStateChanged
attr title "Radio transmission state"
vector 187 rede02.nodo8.wlan.queue queueingTime:vector ETV
attr interpolationmode none
attr recordingmode vector
attr source queueingTime(packetPulled)
attr title "queueing times"
attr unit s
vector 188 rede02.nodo8.wlan.queue outgoingPacketLengths:vector ETV
attr interpolationmode none
attr recordingmode vector
attr source packetLength(packetPulled)
attr title "outgoing packet lengths"
attr unit b
vector 189 rede02.nodo8.wlan.queue outgoingDataRate:vector ETV
attr interpolationmode linear
attr recordingmode vector
attr source throughput(packetPulled)
attr title "outgoing datarate"
attr unit bps
vector 190 rede02.nodo7.wlan.mac packetDropIncorrectlyReceived:vector(packetBytes) ETV
attr interpolationmode none
attr recordingmode vector(packetBytes)
attr source packetDropReasonIsIncorrectlyReceived(packetDropped)
attr title "packet drop: incorrectly received, packetBytes"
vector 191 rede02.nodo9.wlan.queue incomingPacketLengths:vector ETV
attr interpolationmode none
attr recordingmode vector
attr source packetLength(packetPushStarted)
attr title "incoming packet lengths"
attr unit b
vector 192 rede02.nodo9.wlan.queue incomingDataRate:vector ETV
attr interpolationmode linear
attr recordingmode vector
attr source throughput(packetPushStarted)
attr title "incoming datarate"
attr unit bps
vector 193 rede02.nodo9.wlan.radio transmissionState:vector ETV
attr interpolationmode sample-hold
attr recordingmode vector
attr source transmissionStateChanged
attr title "Radio transmission state"
vector 194 rede02.nodo9.wlan.queue queueingTime:vector ETV
attr interpolationmode none
attr recordingmode vector
attr source queueingTime(packetPulled)
attr title "queueing times"
attr unit s
vector 195 rede02.nodo9.wlan.queue outgoingPacketLengths:vector ETV
attr interpolationmode none
attr recordingmode vector
attr source packetLength(packetPulled)
attr title "outgoing packet lengths"
attr unit b
vector 196 rede02.nodo9.wlan.queue outgoingDataRate:vector ETV
attr interpolationmode linear
attr recordingmode vector
attr source throughput(packetPulled)
attr title "outgoing datarate"
attr unit bps
vector 197 rede02.nodo5.wlan.mac packetDropIncorrectlyReceived:vector(packetBytes) ETV
attr interpolationmode none
attr recordingmode vector(packetBytes)
attr source packetDropReasonIsIncorrectlyReceived(packetDropped)
attr title "packet drop: incorrectly received, packetBytes"
vector 198 rede02.nodo18.wlan.mac packetDropIncorrectlyReceived:vector(packetBytes) ETV
attr interpolationmode none
attr recordingmode vector(packetBytes)
attr source packetDropReasonIsIncorrectlyReceived(packetDropped)
attr title "packet drop: incorrectly received, packetBytes"
vector 199 rede02.nodo2.wlan.mac packetDropIncorrectlyReceived:vector(packetBytes) ETV
attr interpolationmode none
attr recordingmode vector(packetBytes)
attr source packetDropReasonIsIncorrectlyReceived(packetDropped)
attr title "packet drop: incorrectly received, packetBytes"
vector 200 rede02.nodo12.wlan.mac packetDropIncorrectlyReceived:vector(packetBytes) ETV
attr interpolationmode none
attr recordingmode vector(packetBytes)
attr source packetDropReasonIsIncorrectlyReceived(packetDropped)
attr title "packet drop: incorrectly received, packetBytes"
vector 201 rede02.nodo15.wlan.mac packetDropIncorrectlyReceived:vector(packetBytes) ETV
attr interpolationmode none
attr recordingmode vector(packetBytes)
attr source packetDropReasonIsIncorrectlyReceived(packetDropped)
attr title "packet drop: incorrectly received, packetBytes"
vector 202 rede02.nodo13.wlan.mac packetDropIncorrectlyReceived:vector(packetBytes) ETV
attr interpolationmode none
attr recordingmode vector(packetBytes)
attr source packetDropReasonIsIncorrectlyReceived(packetDropped)
attr title "packet drop: incorrectly received, packetBytes"
vector 203 rede02.nodo10.wlan.mac packetDropIncorrectlyReceived:vector(packetBytes) ETV
attr interpolationmode none
attr recordingmode vector(packetBytes)
attr source packetDropReasonIsIncorrectlyReceived(packetDropped)
attr title "packet drop: incorrectly received, packetBytes"
vector 204 rede02.nodo16.wlan.mac packetDropIncorrectlyReceived:vector(packetBytes) ETV
attr interpolationmode none
attr recordingmode vector(packetBytes)
attr source packetDropReasonIsIncorrectlyReceived(packetDropped)
attr title "packet drop: incorrectly received, packetBytes"
vector 205 rede02.nodo14.wlan.mac packetDropIncorrectlyReceived:vector(packetBytes) ETV
attr interpolationmode none
attr recordingmode vector(packetBytes)
attr source packetDropReasonIsIncorrectlyReceived(packetDropped)
attr title "packet drop: incorrectly received, packetBytes"
vector 206 rede02.nodo11.wlan.mac packetDropIncorrectlyReceived:vector(packetBytes) ETV
attr interpolationmode none
attr recordingmode vector(packetBytes)
attr source packetDropReasonIsIncorrectlyReceived(packetDropped)
attr title "packet drop: incorrectly received, packetBytes"
vector 207 rede02.nodo17.wlan.mac packetDropIncorrectlyReceived:vector(packetBytes) ETV
attr interpolationmode none
attr recordingmode vector(packetBytes)
attr source packetDropReasonIsIncorrectlyReceived(packetDropped)
attr title "packet drop: incorrectly received, packetBytes"
vector 208 rede02.nodo10.wlan.queue incomingPacketLengths:vector ETV
attr interpolationmode none
attr recordingmode vector
attr source packetLength(packetPushStarted)
attr title "incoming packet lengths"
attr unit b
vector 209 rede02.nodo10.wlan.queue incomingDataRate:vector ETV
attr interpolationmode linear
attr recordingmode vector
attr source throughput(packetPushStarted)
attr title "incoming datarate"
attr unit bps
vector 210 rede02.nodo10.wlan.radio transmissionState:vector ETV
attr interpolationmode sample-hold
attr recordingmode vector
attr source transmissionStateChanged
attr title "Radio transmission state"
vector 211 rede02.nodo10.wlan.queue queueingTime:vector ETV
attr interpolationmode none
attr recordingmode vector
attr source queueingTime(packetPulled)
attr title "queueing times"
attr unit s
vector 212 rede02.nodo10.wlan.queue outgoingPacketLengths:vector ETV
attr interpolationmode none
attr recordingmode vector
attr source packetLength(packetPulled)
attr title "outgoing packet lengths"
attr unit b
vector 213 rede02.nodo10.wlan.queue outgoingDataRate:vector ETV
attr interpolationmode linear
attr recordingmode vector
attr source throughput(packetPulled)
attr title "outgoing datarate"
attr unit bps
vector 214 rede02.nodo11.wlan.queue incomingPacketLengths:vector ETV
attr interpolationmode none
attr recordingmode vector
attr source packetLength(packetPushStarted)
attr title "incoming packet lengths"
attr unit b
vector 215 rede02.nodo11.wlan.queue incomingDataRate:vector ETV
attr interpolationmode linear
attr recordingmode vector
attr source throughput(packetPushStarted)
attr title "incoming datarate"
attr unit bps
vector 216 rede02.nodo11.wlan.radio transmissionState:vector ETV
attr interpolationmode sample-hold
attr recordingmode vector
attr source transmissionStateChanged
attr title "Radio transmission state"
vector 217 rede02.nodo11.wlan.queue queueingTime:vector ETV
attr interpolationmode none
attr recordingmode vector
attr source queueingTime(packetPulled)
attr title "queueing times"
attr unit s
vector 218 rede02.nodo11.wlan.queue outgoingPacketLengths:vector ETV
attr interpolationmode none
attr recordingmode vector
attr source packetLength(packetPulled)
attr title "outgoing packet lengths"
attr unit b
vector 219 rede02.nodo11.wlan.queue outgoingDataRate:vector ETV
attr interpolationmode linear
attr recordingmode vector
attr source throughput(packetPulled)
attr title "outgoing datarate"
attr unit bps
vector 220 rede02.nodo12.wlan.queue incomingPacketLengths:vector ETV
attr interpolationmode none
attr recordingmode vector
attr source packetLength(packetPushStarted)
attr title "incoming packet lengths"
attr unit b
vector 221 rede02.nodo12.wlan.queue incomingDataRate:vector ETV
attr interpolationmode linear
attr recordingmode vector
attr source throughput(packetPushStarted)
attr title "incoming datarate"
attr unit bps
vector 222 rede02.nodo12.wlan.radio transmissionState:vector ETV
attr interpolationmode sample-hold
attr recordingmode vector
attr source transmissionStateChanged
attr title "Radio transmission state"
vector 223 rede02.nodo12.wlan.queue queueingTime:vector ETV
attr interpolationmode none
attr recordingmode vector
attr source queueingTime(packetPulled)
attr title "queueing times"
attr unit s
vector 224 rede02.nodo12.wlan.queue outgoingPacketLengths:vector ETV
attr interpolationmode none
attr recordingmode vector
attr source packetLength(packetPulled)
attr title "outgoing packet lengths"
attr unit b
vector 225 rede02.nodo12.wlan.queue outgoingDataRate:vector ETV
attr interpolationmode linear
attr recordingmode vector
attr source throughput(packetPulled)
attr title "outgoing datarate"
attr unit bps
vector 226 rede02.nodo13.wlan.queue incomingPacketLengths:vector ETV
attr interpolationmode none
attr recordingmode vector
attr source packetLength(packetPushStarted)
attr title "incoming packet lengths"
attr unit b
vector 227 rede02.nodo13.wlan.queue incomingDataRate:vector ETV
attr interpolationmode linear
attr recordingmode vector
attr source throughput(packetPushStarted)
attr title "incoming datarate"
attr unit bps
vector 228 rede02.nodo13.wlan.radio transmissionState:vector ETV
attr interpolationmode sample-hold
attr recordingmode vector
attr source transmissionStateChanged
attr title "Radio transmission state"
vector 229 rede02.nodo13.wlan.queue queueingTime:vector ETV
attr interpolationmode none
attr recordingmode vector
attr source queueingTime(packetPulled)
attr title "queueing times"
attr unit s
vector 230 rede02.nodo13.wlan.queue outgoingPacketLengths:vector ETV
attr interpolationmode none
attr recordingmode vector
attr source packetLength(packetPulled)
attr title "outgoing packet lengths"
attr unit b
vector 231 rede02.nodo13.wlan.queue outgoingDataRate:vector ETV
attr interpolationmode linear
attr recordingmode vector
attr source throughput(packetPulled)
attr title "outgoing datarate"
attr unit bps
vector 232 rede02.nodo14.wlan.queue incomingPacketLengths:vector ETV
attr interpolationmode none
attr recordingmode vector
attr source packetLength(packetPushStarted)
attr title "incoming packet lengths"
attr unit b
vector 233 rede02.nodo14.wlan.queue incomingDataRate:vector ETV
attr interpolationmode linear
attr recordingmode vector
attr source throughput(packetPushStarted)
attr title "incoming datarate"
attr unit bps
vector 234 rede02.nodo14.wlan.radio transmissionState:vector ETV
attr interpolationmode sample-hold
attr recordingmode vector
attr source transmissionStateChanged
attr title "Radio transmission state"
vector 235 rede02.nodo14.wlan.queue queueingTime:vector ETV
attr interpolationmode none
attr recordingmode vector
attr source queueingTime(packetPulled)
attr title "queueing times"
attr unit s
vector 236 rede02.nodo14.wlan.queue outgoingPacketLengths:vector ETV
attr interpolationmode none
attr recordingmode vector
attr source packetLength(packetPulled)
attr title "outgoing packet lengths"
attr unit b
vector 237 rede02.nodo14.wlan.queue outgoingDataRate:vector ETV
attr interpolationmode linear
attr recordingmode vector
attr source throughput(packetPulled)
attr title "outgoing datarate"
attr unit bps
vector 238 rede02.nodo15.wlan.queue incomingPacketLengths:vector ETV
attr interpolationmode none
attr recordingmode vector
attr source packetLength(packetPushStarted)
attr title "incoming packet lengths"
attr unit b
vector 239 rede02.nodo15.wlan.queue incomingDataRate:vector ETV
attr interpolationmode linear
attr recordingmode vector
attr source throughput(packetPushStarted)
attr title "incoming datarate"
attr unit bps
vector 240 rede02.nodo15.wlan.radio transmissionState:vector ETV
attr interpolationmode sample-hold
attr recordingmode vector
attr source transmissionStateChanged
attr title "Radio transmission state"
vector 241 rede02.nodo15.wlan.queue queueingTime:vector ETV
attr interpolationmode none
attr recordingmode vector
attr source queueingTime(packetPulled)
attr title "queueing times"
attr unit s
vector 242 rede02.nodo15.wlan.queue outgoingPacketLengths:vector ETV
attr interpolationmode none
attr recordingmode vector
attr source packetLength(packetPulled)
attr title "outgoing packet lengths"
attr unit b
vector 243 rede02.nodo15.wlan.queue outgoingDataRate:vector ETV
attr interpolationmode linear
attr recordingmode vector
attr source throughput(packetPulled)
attr title "outgoing datarate"
attr unit bps
vector 244 rede02.nodo8.wlan.mac packetDropIncorrectlyReceived:vector(packetBytes) ETV
attr interpolationmode none
attr recordingmode vector(packetBytes)
attr source packetDropReasonIsIncorrectlyReceived(packetDropped)
attr title "packet drop: incorrectly received, packetBytes"
vector 245 rede02.nodo1.wlan.mac packetDropIncorrectlyReceived:vector(packetBytes) ETV
attr interpolationmode none
attr recordingmode vector(packetBytes)
attr source packetDropReasonIsIncorrectlyReceived(packetDropped)
attr title "packet drop: incorrectly received, packetBytes"
vector 246 rede02.nodo6.wlan.mac packetDropIncorrectlyReceived:vector(packetBytes) ETV
attr interpolationmode none
attr recordingmode vector(packetBytes)
attr source packetDropReasonIsIncorrectlyReceived(packetDropped)
attr title "packet drop: incorrectly received, packetBytes"
vector 247 rede02.nodo16.wlan.queue incomingPacketLengths:vector ETV
attr interpolationmode none
attr recordingmode vector
attr source packetLength(packetPushStarted)
attr title "incoming packet lengths"
attr unit b
vector 248 rede02.nodo16.wlan.queue incomingDataRate:vector ETV
attr interpolationmode linear
attr recordingmode vector
attr source throughput(packetPushStarted)
attr title "incoming datarate"
attr unit bps
vector 249 rede02.nodo16.wlan.radio transmissionState:vector ETV
attr interpolationmode sample-hold
attr recordingmode vector
attr source transmissionStateChanged
attr title "Radio transmission state"
vector 250 rede02.nodo16.wlan.queue queueingTime:vector ETV
attr interpolationmode none
attr recordingmode vector
attr source queueingTime(packetPulled)
attr title "queueing times"
attr unit s
vector 251 rede02.nodo16.wlan.queue outgoingPacketLengths:vector ETV
attr interpolationmode none
attr recordingmode vector
attr source packetLength(packetPulled)
attr title "outgoing packet lengths"
attr unit b
vector 252 rede02.nodo16.wlan.queue outgoingDataRate:vector ETV
attr interpolationmode linear
attr recordingmode vector
attr source throughput(packetPulled)
attr title "outgoing datarate"
attr unit bps
vector 253 rede02.nodo17.wlan.queue incomingPacketLengths:vector ETV
attr interpolationmode none
attr recordingmode vector
attr source packetLength(packetPushStarted)
attr title "incoming packet lengths"
attr unit b
vector 254 rede02.nodo17.wlan.queue incomingDataRate:vector ETV
attr interpolationmode linear
attr recordingmode vector
attr source throughput(packetPushStarted)
attr title "incoming datarate"
attr unit bps
vector 255 rede02.nodo17.wlan.radio transmissionState:vector ETV
attr interpolationmode sample-hold
attr recordingmode vector
attr source transmissionStateChanged
attr title "Radio transmission state"
vector 256 rede02.nodo17.wlan.queue queueingTime:vector ETV
attr interpolationmode none
attr recordingmode vector
attr source queueingTime(packetPulled)
attr title "queueing times"
attr unit s
vector 257 rede02.nodo17.wlan.queue outgoingPacketLengths:vector ETV
attr interpolationmode none
attr recordingmode vector
attr source packetLength(packetPulled)
attr title "outgoing packet lengths"
attr unit b
vector 258 rede02.nodo17.wlan.queue outgoingDataRate:vector ETV
attr interpolationmode linear
attr recordingmode vector
attr source throughput(packetPulled)
attr title "outgoing datarate"
attr unit bps
vector 259 rede02.nodo9.wlan.mac packetDropIncorrectlyReceived:vector(packetBytes) ETV
attr interpolationmode none
attr recordingmode vector(packetBytes)
attr source packetDropReasonIsIncorrectlyReceived(packetDropped)
attr title "packet drop: incorrectly received, packetBytes"
vector 260 rede02.nodo18.wlan.queue outgoingDataRate:vector ETV
attr interpolationmode linear
attr recordingmode vector
attr source throughput(packetPulled)
attr title "outgoing datarate"
attr unit bps
vector 261 rede02.nodo18.wlan.queue incomingDataRate:vector ETV
attr interpolationmode linear
attr recordingmode vector
attr source throughput(packetPushStarted)
attr title "incoming datarate"
attr unit bps
0	0	0	0
0	0	0	0
0	0	0	0
0	0	0	0
0	0	0	0
0	2	1	1
0	4	1.001408	0
0	162	3	1
0	164	3.000128	0
0	441	5	1
0	597	5.004736	0
0	881	7	1
0	961	7.001856	0
0	1445	9	1
0	1447	9.000128	0
0	2177	11	1
0	2179	11.000768	0
0	3104	13	1
0	3493	13.005184	0
0	4032	15	1
0	4192	15.001408	0
0	5116	17	1
0	5198	17.001088	0
0	6401	19	1
0	6798	19.006656	0
0	7594	21	1
0	7979	21.005376	0
0	8721	23	1
0	8923	23.002176	0
0	10008	25	1
0	10443	25.006656	0
0	11257	27	1
0	11579	27.004416	0
0	12502	29	1
0	12860	29.005376	0
0	13775	31	1
0	14014	31.002176	0
0	14942	33	1
0	15259	33.004096	0
0	16118	35	1
0	16283	35.001088	0
0	17286	37	1
0	17370	37.001728	0
0	18546	39	1
0	18751	39.001856	0
0	19819	41	1
0	20343	41.012864	0
0	21170	43	1
0	21532	43.004736	0
0	22557	45	1
0	22683	45.001856	0
0	23802	47	1
0	24117	47.004736	0
0	25102	49	1
0	25528	49.006656	0
1	0	0	0
1	0	0	0
1	0	0	0
1	0	0	0
1	0	0	0
1	2	1	0
1	4	1.001408	0
1	162	3	0
1	164	3.000128	0
1	441	5	0
1	597	5.004736	0
1	881	7	0
1	961	7.001856	0
1	1445	9	0
1	1447	9.000128	0
1	2177	11	0
1	2179	11.000768	0
1	3104	13	0
1	3493	13.005184	0
1	4032	15	0
1	4192	15.001408	0
1	5116	17	0
1	5198	17.001088	0
1	6401	19	0
1	6798	19.006656	0
1	7594	21	0
1	7979	21.005376	0
1	8721	23	0
1	8923	23.002176	0
1	10008	25	0
1	10443	25.006656	0
1	11257	27	0
1	11579	27.004416	0
1	12502	29	0
1	12860	29.005376	0
1	13775	31	0
1	14014	31.002176	0
1	14942	33	0
1	15259	33.004096	0
1	16118	35	0
1	16283	35.001088	0
1	17286	37	0
1	17370	37.001728	0
1	18546	39	0
1	18751	39.001856	0
1	19819	41	0
1	20343	41.012864	0
1	21170	43	0
1	21532	43.004736	0
1	22557	45	0
1	22683	45.001856	0
1	23802	47	0
1	24117	47.004736	0
1	25102	49	0
1	25528	49.006656	0
2	0	0	2
2	1	1	1.998
2	3	1.00128	1.99799744
2	4	1.001408	1.997997184
2	5	1.0016	1.9979968
2	23	1.001604300502	1.9979963699498
2	24	1.00208	1.9979488
2	75	1.002080269445	1.9979487994611
2	79	1.012080269445	1.9979287994611
2	80	2	1.99595296
2	82	2.00224	1.99594848
2	83	2.002368	1.995948224
2	84	2.00256	1.99594784
2	85	2.002560050035	1.9959478398999
2	102	2.0025618211	1.9959478221893
2	104	2.003040050035	1.9959430398999
2	154	2.003040223762	1.9959430395525
2	158	2.013040223762	1.9959230395525
2	159	3	1.99394912
2	164	3.000128	1.993948864
2	165	3.00032	1.99394848
2	183	3.000322097533	1.9939482702467
2	184	3.0008	1.99390048
2	235	3.000800269445	1.9939004794611
2	239	3.0016	1.99389888
2	240	3.001728	1.993898624
2	241	3.00192	1.99389824
2	248	3.001920100069	1.9938982397999
2	259	3.001922477111	1.9938982160294
2	279	3.002400100069	1.9938934397999
2	311	3.002400180402	1.9938934396392
2	315	3.010800269445	1.9938766394611
2	316	3.012400180402	1.9938734396392
2	317	4	1.99189824
2	321	4.00096	1.99189632
2	323	4.001088	1.991896064
2	325	4.00128	1.99189568
2	327	4.001280050035	1.9918956798999
2	362	4.00128446152	1.9918956357851
2	365	4.001760050035	1.9918908798999
2	432	4.001760255127	1.9918908794897
2	435	4.011760255127	1.9918708794897
2	436	5	1.9898944
2	442	5.00032	1.98989376
2	443	5.000448	1.989893504
2	444	5.00064	1.98989312
2	450	5.00064007076	1.9898931198585
2	462	5.000641693898	1.9898931036271
2	479	5.00112007076	1.9898883198585
2	511	5.001120206298	1.9898883195874
2	518	5.00192	1.98988672
2	519	5.002048	1.989886464
2	520	5.00224	1.98988608
2	528	5.002240100069	1.9898860797999
2	539	5.002243717381	1.9898860436267
2	560	5.002720100069	1.9898812797999
2	592	5.002720180402	1.9898812796392
2	596	5.004608	1.989877504
2	597	5.004736	1.989877248
2	598	5.004928	1.989876864
2	616	5.004932730188	1.9898763909812
2	617	5.005408	1.989828864
2	668	5.005408269445	1.9898288634611
2	672	5.011120206298	1.9898174395874
2	673	5.012720180402	1.9898142396392
2	674	5.015408269445	1.9898088634611
2	675	6	1.98783968
2	682	6.000128	1.987839424
2	683	6.00032	1.98783904
2	685	6.000320050035	1.9878390398999
2	702	6.000321613294	1.9878390242673
2	705	6.000800050035	1.9878342398999
2	752	6.000800255127	1.9878342394897
2	759	6.00192	1.987832
2	760	6.002048	1.987831744
2	762	6.002176	1.987831488
2	763	6.00224	1.98783136
2	775	6.002240111881	1.9878313597762
2	781	6.0022408568	1.987831352327
2	800	6.00237307487	1.9878300301463
2	832	6.002720111881	1.9878265597762
2	853	6.002848050035	1.9878259200855
2	869	6.002848223762	1.987825919738
2	871	6.010800255127	1.9878100156753
2	872	6.012720158223	1.9878061758691
2	873	6.012848223762	1.987805919738
2	874	7	1.9858316161855
2	883	7.000128	1.9858313601855
2	884	7.00032	1.9858309761855
2	891	7.000320100069	1.9858309759854
2	902	7.000320890487	1.9858309680812
2	924	7.000800100069	1.9858261759854
2	956	7.000800180402	1.9858261758247
2	960	7.001728	1.9858243201855
2	961	7.001856	1.9858240641855
2	962	7.002048	1.9858236801855
2	980	7.002049877536	1.9858234924319
2	985	7.002528	1.9857756801855
2	1036	7.002528269445	1.9857756796466
2	1040	7.002688	1.9857753601855
2	1041	7.002816	1.9857751041855
2	1042	7.003008	1.9857747201855
2	1048	7.00300807076	1.985774720044
2	1060	7.003009219971	1.9857747085519
2	1077	7.00348807076	1.985769920044
2	1109	7.003488206298	1.9857699197729
2	1116	7.004928	1.9857670401855
2	1117	7.005056	1.9857667841855
2	1118	7.005248	1.9857664001855
2	1122	7.005248100069	1.9857663999854
2	1136	7.005249612984	1.9857663848562
2	1147	7.005728100069	1.9857615999854
2	1188	7.005728269445	1.9857615996466
2	1192	7.010800180402	1.9857514558247
2	1193	7.012528269445	1.9857479996466
2	1194	7.013488206298	1.9857460797729
2	1195	7.015728269445	1.9857415996466
2	1196	8	1.9837730561855
2	1204	8.00096	1.9837711361855
2	1207	8.001088	1.9837708801855
2	1210	8.00128	1.9837704961855
2	1216	8.001280050035	1.9837704960855
2	1266	8.001285221456	1.9837704443713
2	1275	8.001760050035	1.9837656960855
2	1312	8.001760111881	1.9837656957762
2	1354	8.001760255127	1.9837656954897
2	1357	8.006208	1.9837568
2	1358	8.006336	1.983756544
2	1359	8.006528	1.98375616
2	1371	8.006528111881	1.9837561597762
2	1377	8.00653053774	1.9837561355176
2	1412	8.007008111881	1.9837513597762
2	1426	8.007008158223	1.9837513596836
2	1433	8.011760223762	1.9837418555525
2	1434	8.011760255127	1.9837418554897
2	1435	8.017008158223	1.9837313596836
2	1436	9	1.981765376
2	1447	9.000128	1.98176512
2	1448	9.00032	1.981764736
2	1466	9.000322152246	1.9817645207754
2	1472	9.0008	1.981716736
2	1523	9.000800269445	1.9817167354611
2	1527	9.000896	1.981716544
2	1528	9.001088	1.98171616
2	1542	9.001088141519	1.981716159717
2	1546	9.001090868201	1.9817161324501
2	1589	9.001568141519	1.981711359717
2	1600	9.001568180402	1.9817113596392
2	1604	9.002048	1.9817104
2	1605	9.002176	1.981710144
2	1606	9.00224	1.981710016
2	1607	9.002368	1.98170976
2	1615	9.002368100069	1.9817097597999
2	1626	9.002368860619	1.9817097521944
2	1645	9.002566492975	1.9817077758708
2	1665	9.002848100069	1.9817049597999
2	1702	9.003040100069	1.9817039997999
2	1715	9.003040269445	1.9817039994611
2	1717	9.003136	1.981703808
2	1718	9.003328	1.981703424
2	1724	9.00332807076	1.9817034238585
2	1736	9.003331683774	1.9817033877283
2	1753	9.00380807076	1.9816986238585
2	1785	9.003808206298	1.9816986235874
2	1792	9.010800269445	1.9816846394611
2	1793	9.011568180402	1.9816831036392
2	1794	9.012848180402	1.9816805436392
2	1795	9.013040269445	1.9816801594611
2	1796	9.013808206298	1.9816786235874
2	1797	9.85312	1.98
2	1798	9.874719602183	1.9799568007956
2	1799	9.874911650987	1.979956416698
2	1800	9.896319924452	1.9799136001511
2	1801	9.89632	1.9799136
2	1802	9.917919713164	1.9798704005737
2	1803	9.918207814462	1.9798698243711
2	1804	9.939519814462	1.9798272003711
2	1805	9.939519854739	1.9798272002905
2	1806	9.961119586023	1.979784000828
2	1807	9.961119588543	1.9797840008229
2	1808	9.961119593147	1.9797840008137
2	1809	9.961119638727	1.9797840007225
2	1810	9.961119645398	1.9797840007092
2	1811	9.961119661367	1.9797840006773
2	1812	9.961119661882	1.9797840006762
2	1813	9.961119667503	1.979784000665
2	1814	9.961119686154	1.9797840006277
2	1815	9.961119724239	1.9797840005515
2	1816	10	1.97970624
2	1826	10.00032	1.9797056
2	1827	10.000448	1.979705344
2	1828	10.00064	1.97970496
2	1839	10.000640111881	1.9797049597762
2	1848	10.000640433154	1.9797049565635
2	1877	10.001120111881	1.9797001597762
2	1903	10.001120223762	1.9797001595525
2	1907	10.001216	1.979699968
2	1908	10.00128	1.97969984
2	1909	10.001408	1.979699584
2	1911	10.001408050035	1.9796995838999
2	1928	10.001408492782	1.9796995794725
2	1947	10.001600511651	1.9796976592838
2	1949	10.001888050035	1.9796947838999
2	2006	10.002080150104	1.9796938233996
2	2007	10.002080180402	1.979693823339
2	2009	10.00224	1.9796935036998
2	2010	10.002368	1.9796932476998
2	2011	10.00256	1.9796928636998
2	2012	10.002560050035	1.9796928635997
2	2029	10.002560518087	1.9796928589192
2	2031	10.003040050035	1.9796880635997
2	2081	10.003040223762	1.9796880632523
2	2085	10.003328	1.9796874876998
2	2086	10.003456	1.9796872316998
2	2087	10.003648	1.9796868476998
2	2099	10.003648111881	1.979686847476
2	2105	10.003648253625	1.9796868460586
2	2140	10.004128111881	1.979682047476
2	2154	10.004128158223	1.9796820473833
2	2161	10.011120223762	1.9796680632523
2	2162	10.011888255127	1.9796665271895
2	2163	10.012080180402	1.979666143339
2	2164	10.013040223762	1.9796642232523
2	2165	10.014128158223	1.9796620473833
2	2166	11	1.9776903036998
2	2178	11.00064	1.9776890236998
2	2179	11.000768	1.9776887676998
2	2180	11.00096	1.9776883836998
2	2190	11.000960125774	1.9776883711224
2	2200	11.00096087306	1.9776882963938
2	2205	11.00144	1.9776403836998
2	2250	11.001440243147	1.9776403832135
2	2256	11.001440269445	1.9776403831609
2	2260	11.00192	1.9776394236998
2	2262	11.002048	1.9776391676998
2	2264	11.00224	1.9776387836998
2	2282	11.002240100069	1.9776387834997
2	2302	11.002240308517	1.9776387814152
2	2337	11.002720100069	1.9776339834997
2	2360	11.002720141519	1.9776339832924
2	2373	11.002720180402	1.9776339832146
2	2376	11.003328	1.9776327675754
2	2377	11.003456	1.9776325115754
2	2378	11.003648	1.9776321275754
2	2382	11.003648100069	1.9776321273753
2	2396	11.003648324116	1.9776321251348
2	2407	11.004128100069	1.9776273273753
2	2442	11.004128237866	1.9776273270997
2	2448	11.004128269445	1.9776273270366
2	2452	11.004608	1.9776263675754
2	2453	11.004736	1.9776261115754
2	2454	11.004928	1.9776257275754
2	2470	11.004928200138	1.9776257271752
2	2472	11.004928382127	1.9776257253553
2	2519	11.005408200138	1.9776209271752
2	2524	11.005408223762	1.9776209271279
2	2528	11.005696	1.9776203515754
2	2529	11.005824	1.9776200955754
2	2530	11.006016	1.9776197115754
2	2536	11.00601607076	1.9776197114339
2	2548	11.006016272674	1.9776197094148
2	2565	11.00649607076	1.9776149114339
2	2597	11.006496206298	1.9776149111628
2	2604	11.011440269445	1.9776050230366
2	2605	11.012720180402	1.9776024632146
2	2606	11.014128269445	1.9775996470366
2	2607	11.015408223762	1.9775970871279
2	2608	11.016496206298	1.9775949111628
2	2609	12	1.9756279035754
2	2622	12.000128	1.9756276475754
2	2623	12.00032	1.9756272635754
2	2624	12.000320050035	1.9756272634754
2	2636	12.000320205937	1.9756272619164
2	2641	12.000320856737	1.9756272554084
2	2643	12.000800050035	1.9756224634754
2	2690	12.000800255127	1.9756224630652
2	2697	12.00096	1.9756221435754
2	2698	12.001088	1.9756218875754
2	2699	12.00128	1.9756215035754
2	2718	12.001280250173	1.9756215030751
2	2720	12.001280329807	1.9756215022788
2	2770	12.001760250173	1.9756167030751
2	2775	12.001760269445	1.9756167030366
2	2779	12.00192	1.9756163835754
2	2780	12.002048	1.9756161275754
2	2781	12.00224	1.9756157435754
2	2782	12.002240050035	1.9756157434754
2	2799	12.002240455811	1.9756157394176
2	2804	12.002720050035	1.9756109434754
2	2854	12.002720223762	1.9756109431279
2	2858	12.002816	1.9756107515754
2	2859	12.003008	1.9756103675754
2	2868	12.003008111881	1.9756103673517
2	2877	12.003008587256	1.9756103625979
2	2903	12.003488111881	1.9756055673517
2	2929	12.003488223762	1.9756055671279
2	2933	12.006208	1.9756001275754
2	2934	12.006336	1.9755998715754
2	2935	12.006528	1.9755994875754
2	2951	12.006528150104	1.9755994872752
2	2953	12.006528490905	1.9755994838672
2	3000	12.007008150104	1.9755946872752
2	3005	12.007008180402	1.9755946872146
2	3009	12.010800255127	1.9755871030652
2	3010	12.010816	1.9755870715754
2	3011	12.010944	1.9755868155754
2	3012	12.011136	1.9755864315754
2	3024	12.011136111881	1.9755864313517
2	3030	12.011136230116	1.9755864301693
2	3065	12.011616111881	1.9755816313517
2	3079	12.011616158223	1.975581631259
2	3086	12.011760269445	1.9755813430366
2	3087	12.012720223762	1.9755794231279
2	3088	12.013488223762	1.9755778871279
2	3089	12.017008180402	1.9755708472146
2	3090	12.021616158223	1.975561631259
2	3091	13	1.9736048635754
2	3106	13.000128	1.9736046075754
2	3107	13.00032	1.9736042235754
2	3115	13.000320100069	1.9736042233753
2	3121	13.00032011971	1.9736042231789
2	3126	13.000320666462	1.9736042177114
2	3147	13.000800100069	1.9735994233753
2	3179	13.000800180402	1.9735994232146
2	3183	13.0016	1.9735978235754
2	3186	13.001728	1.9735975675754
2	3189	13.00192	1.9735971835754
2	3205	13.00192007076	1.9735971834339
2	3245	13.001921939189	1.9735971647496
2	3280	13.00240007076	1.9735923834339
2	3294	13.002400100069	1.9735923832874
2	3312	13.002400141519	1.9735923830801
2	3339	13.002400269445	1.9735923828243
2	3341	13.002496	1.9735921913632
2	3342	13.002688	1.9735918073632
2	3358	13.002688200138	1.9735918069629
2	3360	13.002688445662	1.9735918045076
2	3407	13.003168200138	1.9735870069629
2	3412	13.003168223762	1.9735870069156
2	3416	13.003328	1.9735866873632
2	3417	13.003456	1.9735864313632
2	3418	13.003648	1.9735860473632
2	3435	13.003648158223	1.9735860470467
2	3436	13.00364840984	1.9735860445305
2	3485	13.004128158223	1.9735812470467
2	3492	13.005056	1.9735793913632
2	3493	13.005184	1.9735791353632
2	3494	13.005376	1.9735787513632
2	3512	13.005376340436	1.9735787173196
2	3513	13.005856	1.9735307513632
2	3564	13.005856269445	1.9735307508243
2	3568	13.010800180402	1.9735208630024
2	3569	13.012400180402	1.9735176630024
2	3570	13.012400269445	1.9735176628243
2	3571	13.013168223762	1.9735161269156
2	3572	13.014128158223	1.9735142070467
2	3573	13.015856269445	1.9735107508243
2	3574	14	1.9715424633632
2	3590	14.000128	1.9715422073632
2	3592	14.00032	1.9715418233632
2	3599	14.000320050035	1.9715418232631
2	3630	14.000320596302	1.9715418178004
2	3640	14.000800050035	1.9715370232631
2	3699	14.000800206298	1.9715370224818
2	3703	14.000800255127	1.9715370223841
2	3706	14.001088	1.9715364468944
2	3707	14.001216	1.9715361908944
2	3708	14.001408	1.9715358068944
2	3717	14.001408111881	1.9715358066706
2	3726	14.001408432129	1.9715358034681
2	3754	14.001888111881	1.9715310066706
2	3780	14.001888223762	1.9715310064469
2	3784	14.00224	1.9715303028944
2	3786	14.002368	1.9715300468944
2	3789	14.002496	1.9715297908944
2	3790	14.00256	1.9715296628944
2	3810	14.002560111881	1.9715296626706
2	3827	14.002560417552	1.9715296596139
2	3846	14.002688494544	1.971528378844
2	3893	14.003040111881	1.9715248626706
2	3913	14.003040250173	1.9715248619792
2	3929	14.003168130754	1.9715242225762
2	3932	14.003168150104	1.9715242224795
2	3933	14.003168180402	1.9715242224189
[...]
258	14500	30.6	0
258	14500	30.7	0
258	14500	30.8	0
258	14500	30.9	0
258	14500	31	0
258	14500	31.1	0
258	14500	31.2	0
258	14500	31.3	0
258	14500	31.4	0
258	14500	31.5	0
258	14500	31.6	0
258	14500	31.7	0
258	14500	31.8	0
258	14500	31.9	0
258	14500	32	0
258	15825	32.1	0
258	15825	32.2	0
258	15825	32.3	0
258	15825	32.4	0
258	15825	32.5	0
258	15825	32.6	0
258	15825	32.7	0
258	15825	32.8	0
258	15825	32.9	0
258	15825	33	0
258	15825	33.1	0
258	15825	33.2	0
258	15825	33.3	0
258	15825	33.4	0
258	15825	33.5	0
258	15825	33.6	0
258	15825	33.7	0
258	15825	33.8	0
258	15825	33.9	0
258	15825	34	0
258	16809	34.1	0
258	16809	34.2	0
258	16809	34.3	0
258	16809	34.4	0
258	16809	34.5	0
258	16809	34.6	0
258	16809	34.7	0
258	16809	34.8	0
258	16809	34.9	0
258	16809	35	0
258	16809	35.1	0
258	16809	35.2	0
258	16809	35.3	0
258	16809	35.4	0
258	16809	35.5	0
258	16809	35.6	0
258	16809	35.7	0
258	16809	35.8	0
258	16809	35.9	0
258	16809	36	0
258	18253	36.1	0
258	18253	36.2	0
258	18253	36.3	0
258	18253	36.4	0
258	18253	36.5	0
258	18253	36.6	0
258	18253	36.7	0
258	18253	36.8	0
258	18253	36.9	0
258	18253	37	0
258	18253	37.1	0
258	18253	37.2	0
258	18253	37.3	0
258	18253	37.4	0
258	18253	37.5	0
258	18253	37.6	0
258	18253	37.7	0
258	18253	37.8	0
258	18253	37.9	0
258	18253	38	0
258	19409	38.1	0
258	19409	38.2	0
258	19409	38.3	0
258	19409	38.4	0
258	19409	38.5	0
258	19409	38.6	0
258	19409	38.7	0
258	19409	38.8	0
258	19409	38.9	0
258	19409	39	0
258	19409	39.1	0
258	19409	39.2	0
258	19409	39.3	0
258	19409	39.4	0
258	19409	39.5	0
258	19409	39.6	0
258	19409	39.7	0
258	19409	39.8	0
258	19409	39.9	0
258	19409	40	0
258	20993	40.1	0
258	20993	40.2	0
258	20993	40.3	0
258	20993	40.4	0
258	20993	40.5	0
258	20993	40.6	0
258	20993	40.7	0
258	20993	40.8	0
258	20993	40.9	0
258	20993	41	0
258	20993	41.1	0
258	20993	41.2	0
258	20993	41.3	0
258	20993	41.4	0
258	20993	41.5	0
258	20993	41.6	0
258	20993	41.7	0
258	20993	41.8	0
258	20993	41.9	0
258	20993	42	0
258	22145	42.1	0
258	22145	42.2	0
258	22145	42.3	0
258	22145	42.4	0
258	22145	42.5	0
258	22145	42.6	0
258	22145	42.7	0
258	22145	42.8	0
258	22145	42.9	0
258	22145	43	0
258	22145	43.1	0
258	22145	43.2	0
258	22145	43.3	0
258	22145	43.4	0
258	22145	43.5	0
258	22145	43.6	0
258	22145	43.7	0
258	22145	43.8	0
258	22145	43.9	0
258	22145	44	0
258	23354	44.1	0
258	23354	44.2	0
258	23354	44.3	0
258	23354	44.4	0
258	23354	44.5	0
258	23354	44.6	0
258	23354	44.7	0
258	23354	44.8	0
258	23354	44.9	0
258	23354	45	0
258	23354	45.1	0
258	23354	45.2	0
258	23354	45.3	0
258	23354	45.4	0
258	23354	45.5	0
258	23354	45.6	0
258	23354	45.7	0
258	23354	45.8	0
258	23354	45.9	0
258	23354	46	0
258	24922	46.1	0
258	24922	46.2	0
258	24922	46.3	0
258	24922	46.4	0
258	24922	46.5	0
258	24922	46.6	0
258	24922	46.7	0
258	24922	46.8	0
258	24922	46.9	0
258	24922	47	0
258	24922	47.1	0
258	24922	47.2	0
258	24922	47.3	0
258	24922	47.4	0
258	24922	47.5	0
258	24922	47.6	0
258	24922	47.7	0
258	24922	47.8	0
258	24922	47.9	0
258	24922	48	0
258	25720	48.1	0
258	25720	48.2	0
258	25720	48.3	0
258	25720	48.4	0
258	25720	48.5	0
258	25720	48.6	0
258	25720	48.7	0
258	25720	48.8	0
258	25720	48.9	0
258	25720	49	0
258	25720	49.1	0
258	25720	49.2	0
258	25720	49.3	0
258	25720	49.4	0
258	25720	49.5	0
258	25720	49.6	0
258	25720	49.7	0
258	25720	49.8	0
258	25720	49.9	0
258	25720	50	0
259	6037	18.002528158223	9
259	8414	22.002400100069	9
259	8994	23.002848150104	9
259	22756	45.002528150104	9
260	25720	0.1	0
260	25720	0.2	0
260	25720	0.3	0
260	25720	0.4	0
260	25720	0.5	0
260	25720	0.6	0
260	25720	0.7	0
260	25720	0.8	0
260	25720	0.9	0
260	25720	1	0
260	25720	1.1	0
260	25720	1.2	0
260	25720	1.3	0
260	25720	1.4	0
260	25720	1.5	0
260	25720	1.6	0
260	25720	1.7	0
260	25720	1.8	0
260	25720	1.9	0
260	25720	2	0
260	25720	2.1	0
260	25720	2.2	0
260	25720	2.3	0
260	25720	2.4	0
260	25720	2.5	0
260	25720	2.6	0
260	25720	2.7	0
260	25720	2.8	0
260	25720	2.9	0
260	25720	3	0
260	25720	3.1	0
260	25720	3.2	0
260	25720	3.3	0
260	25720	3.4	0
260	25720	3.5	0
260	25720	3.6	0
260	25720	3.7	0
260	25720	3.8	0
260	25720	3.9	0
260	25720	4	0
260	25720	4.1	0
260	25720	4.2	0
260	25720	4.3	0
260	25720	4.4	0
260	25720	4.5	0
260	25720	4.6	0
260	25720	4.7	0
260	25720	4.8	0
260	25720	4.9	0
260	25720	5	0
260	25720	5.1	0
260	25720	5.2	0
260	25720	5.3	0
260	25720	5.4	0
260	25720	5.5	0
260	25720	5.6	0
260	25720	5.7	0
260	25720	5.8	0
260	25720	5.9	0
260	25720	6	0
260	25720	6.1	0
260	25720	6.2	0
260	25720	6.3	0
260	25720	6.4	0
260	25720	6.5	0
260	25720	6.6	0
260	25720	6.7	0
260	25720	6.8	0
260	25720	6.9	0
260	25720	7	0
260	25720	7.1	0
260	25720	7.2	0
260	25720	7.3	0
260	25720	7.4	0
260	25720	7.5	0
260	25720	7.6	0
260	25720	7.7	0
260	25720	7.8	0
260	25720	7.9	0
260	25720	8	0
260	25720	8.1	0
260	25720	8.2	0
260	25720	8.3	0
260	25720	8.4	0
260	25720	8.5	0
260	25720	8.6	0
260	25720	8.7	0
260	25720	8.8	0
260	25720	8.9	0
260	25720	9	0
260	25720	9.1	0
260	25720	9.2	0
260	25720	9.3	0
260	25720	9.4	0
260	25720	9.5	0
260	25720	9.6	0
260	25720	9.7	0
260	25720	9.8	0
260	25720	9.9	0
260	25720	10	0
260	25720	10.1	0
260	25720	10.2	0
260	25720	10.3	0
260	25720	10.4	0
260	25720	10.5	0
260	25720	10.6	0
260	25720	10.7	0
260	25720	10.8	0
260	25720	10.9	0
260	25720	11	0
260	25720	11.1	0
260	25720	11.2	0
260	25720	11.3	0
260	25720	11.4	0
260	25720	11.5	0
260	25720	11.6	0
260	25720	11.7	0
260	25720	11.8	0
260	25720	11.9	0
260	25720	12	0
260	25720	12.1	0
260	25720	12.2	0
260	25720	12.3	0
260	25720	12.4	0
260	25720	12.5	0
260	25720	12.6	0
260	25720	12.7	0
260	25720	12.8	0
260	25720	12.9	0
260	25720	13	0
260	25720	13.1	0
260	25720	13.2	0
260	25720	13.3	0
260	25720	13.4	0
260	25720	13.5	0
260	25720	13.6	0
260	25720	13.7	0
260	25720	13.8	0
260	25720	13.9	0
260	25720	14	0
260	25720	14.1	0
260	25720	14.2	0
260	25720	14.3	0
260	25720	14.4	0
260	25720	14.5	0
260	25720	14.6	0
260	25720	14.7	0
260	25720	14.8	0
260	25720	14.9	0
260	25720	15	0
260	25720	15.1	0
260	25720	15.2	0
260	25720	15.3	0
260	25720	15.4	0
260	25720	15.5	0
260	25720	15.6	0
260	25720	15.7	0
260	25720	15.8	0
260	25720	15.9	0
260	25720	16	0
260	25720	16.1	0
260	25720	16.2	0
260	25720	16.3	0
260	25720	16.4	0
260	25720	16.5	0
260	25720	16.6	0
260	25720	16.7	0
260	25720	16.8	0
260	25720	16.9	0
260	25720	17	0
260	25720	17.1	0
260	25720	17.2	0
260	25720	17.3	0
260	25720	17.4	0
260	25720	17.5	0
260	25720	17.6	0
260	25720	17.7	0
260	25720	17.8	0
260	25720	17.9	0
260	25720	18	0
260	25720	18.1	0
260	25720	18.2	0
260	25720	18.3	0
260	25720	18.4	0
260	25720	18.5	0
260	25720	18.6	0
260	25720	18.7	0
260	25720	18.8	0
260	25720	18.9	0
260	25720	19	0
260	25720	19.1	0
260	25720	19.2	0
260	25720	19.3	0
260	25720	19.4	0
260	25720	19.5	0
260	25720	19.6	0
260	25720	19.7	0
260	25720	19.8	0
260	25720	19.9	0
260	25720	20	0
260	25720	20.1	0
260	25720	20.2	0
260	25720	20.3	0
260	25720	20.4	0
260	25720	20.5	0
260	25720	20.6	0
260	25720	20.7	0
260	25720	20.8	0
260	25720	20.9	0
260	25720	21	0
260	25720	21.1	0
260	25720	21.2	0
260	25720	21.3	0
260	25720	21.4	0
260	25720	21.5	0
260	25720	21.6	0
260	25720	21.7	0
260	25720	21.8	0
260	25720	21.9	0
260	25720	22	0
260	25720	22.1	0
260	25720	22.2	0
260	25720	22.3	0
260	25720	22.4	0
260	25720	22.5	0
260	25720	22.6	0
260	25720	22.7	0
260	25720	22.8	0
260	25720	22.9	0
260	25720	23	0
260	25720	23.1	0
260	25720	23.2	0
260	25720	23.3	0
260	25720	23.4	0
260	25720	23.5	0
260	25720	23.6	0
260	25720	23.7	0
260	25720	23.8	0
260	25720	23.9	0
260	25720	24	0
260	25720	24.1	0
260	25720	24.2	0
260	25720	24.3	0
260	25720	24.4	0
260	25720	24.5	0
260	25720	24.6	0
260	25720	24.7	0
260	25720	24.8	0
260	25720	24.9	0
260	25720	25	0
260	25720	25.1	0
260	25720	25.2	0
260	25720	25.3	0
260	25720	25.4	0
260	25720	25.5	0
260	25720	25.6	0
260	25720	25.7	0
260	25720	25.8	0
260	25720	25.9	0
260	25720	26	0
260	25720	26.1	0
260	25720	26.2	0
260	25720	26.3	0
260	25720	26.4	0
260	25720	26.5	0
260	25720	26.6	0
260	25720	26.7	0
260	25720	26.8	0
260	25720	26.9	0
260	25720	27	0
260	25720	27.1	0
260	25720	27.2	0
260	25720	27.3	0
260	25720	27.4	0
260	25720	27.5	0
260	25720	27.6	0
260	25720	27.7	0
260	25720	27.8	0
260	25720	27.9	0
260	25720	28	0
260	25720	28.1	0
260	25720	28.2	0
260	25720	28.3	0
260	25720	28.4	0
260	25720	28.5	0
260	25720	28.6	0
260	25720	28.7	0
260	25720	28.8	0
260	25720	28.9	0
260	25720	29	0
260	25720	29.1	0
260	25720	29.2	0
260	25720	29.3	0
260	25720	29.4	0
260	25720	29.5	0
260	25720	29.6	0
260	25720	29.7	0
260	25720	29.8	0
260	25720	29.9	0
260	25720	30	0
260	25720	30.1	0
260	25720	30.2	0
260	25720	30.3	0
260	25720	30.4	0
260	25720	30.5	0
260	25720	30.6	0
260	25720	30.7	0
260	25720	30.8	0
260	25720	30.9	0
260	25720	31	0
260	25720	31.1	0
260	25720	31.2	0
260	25720	31.3	0
260	25720	31.4	0
260	25720	31.5	0
260	25720	31.6	0
260	25720	31.7	0
260	25720	31.8	0
260	25720	31.9	0
260	25720	32	0
260	25720	32.1	0
260	25720	32.2	0
260	25720	32.3	0
260	25720	32.4	0
260	25720	32.5	0
260	25720	32.6	0
260	25720	32.7	0
260	25720	32.8	0
260	25720	32.9	0
260	25720	33	0
260	25720	33.1	0
260	25720	33.2	0
260	25720	33.3	0
260	25720	33.4	0
260	25720	33.5	0
260	25720	33.6	0
260	25720	33.7	0
260	25720	33.8	0
260	25720	33.9	0
260	25720	34	0
260	25720	34.1	0
260	25720	34.2	0
260	25720	34.3	0
260	25720	34.4	0
260	25720	34.5	0
260	25720	34.6	0
260	25720	34.7	0
260	25720	34.8	0
260	25720	34.9	0
260	25720	35	0
260	25720	35.1	0
260	25720	35.2	0
260	25720	35.3	0
260	25720	35.4	0
260	25720	35.5	0
260	25720	35.6	0
260	25720	35.7	0
260	25720	35.8	0
260	25720	35.9	0
260	25720	36	0
260	25720	36.1	0
260	25720	36.2	0
260	25720	36.3	0
260	25720	36.4	0
260	25720	36.5	0
260	25720	36.6	0
260	25720	36.7	0
260	25720	36.8	0
260	25720	36.9	0
260	25720	37	0
260	25720	37.1	0
260	25720	37.2	0
260	25720	37.3	0
260	25720	37.4	0
260	25720	37.5	0
260	25720	37.6	0
260	25720	37.7	0
260	25720	37.8	0
260	25720	37.9	0
260	25720	38	0
260	25720	38.1	0
260	25720	38.2	0
260	25720	38.3	0
260	25720	38.4	0
260	25720	38.5	0
260	25720	38.6	0
260	25720	38.7	0
260	25720	38.8	0
260	25720	38.9	0
260	25720	39	0
260	25720	39.1	0
260	25720	39.2	0
260	25720	39.3	0
260	25720	39.4	0
260	25720	39.5	0
260	25720	39.6	0
260	25720	39.7	0
260	25720	39.8	0
260	25720	39.9	0
260	25720	40	0
260	25720	40.1	0
260	25720	40.2	0
260	25720	40.3	0
260	25720	40.4	0
260	25720	40.5	0
260	25720	40.6	0
260	25720	40.7	0
260	25720	40.8	0
260	25720	40.9	0
260	25720	41	0
260	25720	41.1	0
260	25720	41.2	0
260	25720	41.3	0
260	25720	41.4	0
260	25720	41.5	0
260	25720	41.6	0
260	25720	41.7	0
260	25720	41.8	0
260	25720	41.9	0
260	25720	42	0
260	25720	42.1	0
260	25720	42.2	0
260	25720	42.3	0
260	25720	42.4	0
260	25720	42.5	0
260	25720	42.6	0
260	25720	42.7	0
260	25720	42.8	0
260	25720	42.9	0
260	25720	43	0
260	25720	43.1	0
260	25720	43.2	0
260	25720	43.3	0
260	25720	43.4	0
260	25720	43.5	0
260	25720	43.6	0
260	25720	43.7	0
260	25720	43.8	0
260	25720	43.9	0
260	25720	44	0
260	25720	44.1	0
260	25720	44.2	0
260	25720	44.3	0
260	25720	44.4	0
260	25720	44.5	0
260	25720	44.6	0
260	25720	44.7	0
260	25720	44.8	0
260	25720	44.9	0
260	25720	45	0
260	25720	45.1	0
260	25720	45.2	0
260	25720	45.3	0
260	25720	45.4	0
260	25720	45.5	0
260	25720	45.6	0
260	25720	45.7	0
260	25720	45.8	0
260	25720	45.9	0
260	25720	46	0
260	25720	46.1	0
260	25720	46.2	0
260	25720	46.3	0
260	25720	46.4	0
260	25720	46.5	0
260	25720	46.6	0
260	25720	46.7	0
260	25720	46.8	0
260	25720	46.9	0
260	25720	47	0
260	25720	47.1	0
260	25720	47.2	0
260	25720	47.3	0
260	25720	47.4	0
260	25720	47.5	0
260	25720	47.6	0
260	25720	47.7	0
260	25720	47.8	0
260	25720	47.9	0
260	25720	48	0
260	25720	48.1	0
260	25720	48.2	0
260	25720	48.3	0
260	25720	48.4	0
260	25720	48.5	0
260	25720	48.6	0
260	25720	48.7	0
260	25720	48.8	0
260	25720	48.9	0
260	25720	49	0
260	25720	49.1	0
260	25720	49.2	0
260	25720	49.3	0
260	25720	49.4	0
260	25720	49.5	0
260	25720	49.6	0
260	25720	49.7	0
260	25720	49.8	0
260	25720	49.9	0
260	25720	50	0
261	25720	0.1	0
261	25720	0.2	0
261	25720	0.3	0
261	25720	0.4	0
261	25720	0.5	0
261	25720	0.6	0
261	25720	0.7	0
261	25720	0.8	0
261	25720	0.9	0
261	25720	1	0
261	25720	1.1	0
261	25720	1.2	0
261	25720	1.3	0
261	25720	1.4	0
261	25720	1.5	0
261	25720	1.6	0
261	25720	1.7	0
261	25720	1.8	0
261	25720	1.9	0
261	25720	2	0
261	25720	2.1	0
261	25720	2.2	0
261	25720	2.3	0
261	25720	2.4	0
261	25720	2.5	0
261	25720	2.6	0
261	25720	2.7	0
261	25720	2.8	0
261	25720	2.9	0
261	25720	3	0
261	25720	3.1	0
261	25720	3.2	0
261	25720	3.3	0
261	25720	3.4	0
261	25720	3.5	0
261	25720	3.6	0
261	25720	3.7	0
261	25720	3.8	0
261	25720	3.9	0
261	25720	4	0
261	25720	4.1	0
261	25720	4.2	0
261	25720	4.3	0
261	25720	4.4	0
261	25720	4.5	0
261	25720	4.6	0
261	25720	4.7	0
261	25720	4.8	0
261	25720	4.9	0
261	25720	5	0
261	25720	5.1	0
261	25720	5.2	0
261	25720	5.3	0
261	25720	5.4	0
261	25720	5.5	0
261	25720	5.6	0
261	25720	5.7	0
261	25720	5.8	0
261	25720	5.9	0
261	25720	6	0
261	25720	6.1	0
261	25720	6.2	0
261	25720	6.3	0
261	25720	6.4	0
261	25720	6.5	0
261	25720	6.6	0
261	25720	6.7	0
261	25720	6.8	0
261	25720	6.9	0
261	25720	7	0
261	25720	7.1	0
261	25720	7.2	0
261	25720	7.3	0
261	25720	7.4	0
261	25720	7.5	0
261	25720	7.6	0
261	25720	7.7	0
261	25720	7.8	0
261	25720	7.9	0
261	25720	8	0
261	25720	8.1	0
261	25720	8.2	0
261	25720	8.3	0
261	25720	8.4	0
261	25720	8.5	0
261	25720	8.6	0
261	25720	8.7	0
261	25720	8.8	0
261	25720	8.9	0
261	25720	9	0
261	25720	9.1	0
261	25720	9.2	0
261	25720	9.3	0
261	25720	9.4	0
261	25720	9.5	0
261	25720	9.6	0
261	25720	9.7	0
261	25720	9.8	0
261	25720	9.9	0
261	25720	10	0
261	25720	10.1	0
261	25720	10.2	0
261	25720	10.3	0
261	25720	10.4	0
261	25720	10.5	0
261	25720	10.6	0
261	25720	10.7	0
261	25720	10.8	0
261	25720	10.9	0
261	25720	11	0
261	25720	11.1	0
261	25720	11.2	0
261	25720	11.3	0
261	25720	11.4	0
261	25720	11.5	0
261	25720	11.6	0
261	25720	11.7	0
261	25720	11.8	0
261	25720	11.9	0
261	25720	12	0
261	25720	12.1	0
261	25720	12.2	0
261	25720	12.3	0
261	25720	12.4	0
261	25720	12.5	0
261	25720	12.6	0
261	25720	12.7	0
261	25720	12.8	0
261	25720	12.9	0
261	25720	13	0
261	25720	13.1	0
261	25720	13.2	0
261	25720	13.3	0
261	25720	13.4	0
261	25720	13.5	0
261	25720	13.6	0
261	25720	13.7	0
261	25720	13.8	0
261	25720	13.9	0
261	25720	14	0
261	25720	14.1	0
261	25720	14.2	0
261	25720	14.3	0
261	25720	14.4	0
261	25720	14.5	0
261	25720	14.6	0
261	25720	14.7	0
261	25720	14.8	0
261	25720	14.9	0
261	25720	15	0
261	25720	15.1	0
261	25720	15.2	0
261	25720	15.3	0
261	25720	15.4	0
261	25720	15.5	0
261	25720	15.6	0
261	25720	15.7	0
261	25720	15.8	0
261	25720	15.9	0
261	25720	16	0
261	25720	16.1	0
261	25720	16.2	0
261	25720	16.3	0
261	25720	16.4	0
261	25720	16.5	0
261	25720	16.6	0
261	25720	16.7	0
261	25720	16.8	0
261	25720	16.9	0
261	25720	17	0
261	25720	17.1	0
261	25720	17.2	0
261	25720	17.3	0
261	25720	17.4	0
261	25720	17.5	0
261	25720	17.6	0
261	25720	17.7	0
261	25720	17.8	0
261	25720	17.9	0
261	25720	18	0
261	25720	18.1	0
261	25720	18.2	0
261	25720	18.3	0
261	25720	18.4	0
261	25720	18.5	0
261	25720	18.6	0
261	25720	18.7	0
261	25720	18.8	0
261	25720	18.9	0
261	25720	19	0
261	25720	19.1	0
261	25720	19.2	0
261	25720	19.3	0
261	25720	19.4	0
261	25720	19.5	0
261	25720	19.6	0
261	25720	19.7	0
261	25720	19.8	0
261	25720	19.9	0
261	25720	20	0
261	25720	20.1	0
261	25720	20.2	0
261	25720	20.3	0
261	25720	20.4	0
261	25720	20.5	0
261	25720	20.6	0
261	25720	20.7	0
261	25720	20.8	0
261	25720	20.9	0
261	25720	21	0
261	25720	21.1	0
261	25720	21.2	0
261	25720	21.3	0
261	25720	21.4	0
261	25720	21.5	0
261	25720	21.6	0
261	25720	21.7	0
261	25720	21.8	0
261	25720	21.9	0
261	25720	22	0
261	25720	22.1	0
261	25720	22.2	0
261	25720	22.3	0
261	25720	22.4	0
261	25720	22.5	0
261	25720	22.6	0
261	25720	22.7	0
261	25720	22.8	0
261	25720	22.9	0
261	25720	23	0
261	25720	23.1	0
261	25720	23.2	0
261	25720	23.3	0
261	25720	23.4	0
261	25720	23.5	0
261	25720	23.6	0
261	25720	23.7	0
261	25720	23.8	0
261	25720	23.9	0
261	25720	24	0
261	25720	24.1	0
261	25720	24.2	0
261	25720	24.3	0
261	25720	24.4	0
261	25720	24.5	0
261	25720	24.6	0
261	25720	24.7	0
261	25720	24.8	0
261	25720	24.9	0
261	25720	25	0
261	25720	25.1	0
261	25720	25.2	0
261	25720	25.3	0
261	25720	25.4	0
261	25720	25.5	0
261	25720	25.6	0
261	25720	25.7	0
261	25720	25.8	0
261	25720	25.9	0
261	25720	26	0
261	25720	26.1	0
261	25720	26.2	0
261	25720	26.3	0
261	25720	26.4	0
261	25720	26.5	0
261	25720	26.6	0
261	25720	26.7	0
261	25720	26.8	0
261	25720	26.9	0
261	25720	27	0
261	25720	27.1	0
261	25720	27.2	0
261	25720	27.3	0
261	25720	27.4	0
261	25720	27.5	0
261	25720	27.6	0
261	25720	27.7	0
261	25720	27.8	0
261	25720	27.9	0
261	25720	28	0
261	25720	28.1	0
261	25720	28.2	0
261	25720	28.3	0
261	25720	28.4	0
261	25720	28.5	0
261	25720	28.6	0
261	25720	28.7	0
261	25720	28.8	0
261	25720	28.9	0
261	25720	29	0
261	25720	29.1	0
261	25720	29.2	0
261	25720	29.3	0
261	25720	29.4	0
261	25720	29.5	0
261	25720	29.6	0
261	25720	29.7	0
261	25720	29.8	0
261	25720	29.9	0
261	25720	30	0
261	25720	30.1	0
261	25720	30.2	0
261	25720	30.3	0
261	25720	30.4	0
261	25720	30.5	0
261	25720	30.6	0
261	25720	30.7	0
261	25720	30.8	0
261	25720	30.9	0
261	25720	31	0
261	25720	31.1	0
261	25720	31.2	0
261	25720	31.3	0
261	25720	31.4	0
261	25720	31.5	0
261	25720	31.6	0
261	25720	31.7	0
261	25720	31.8	0
261	25720	31.9	0
261	25720	32	0
261	25720	32.1	0
261	25720	32.2	0
261	25720	32.3	0
261	25720	32.4	0
261	25720	32.5	0
261	25720	32.6	0
261	25720	32.7	0
261	25720	32.8	0
261	25720	32.9	0
261	25720	33	0
261	25720	33.1	0
261	25720	33.2	0
261	25720	33.3	0
261	25720	33.4	0
261	25720	33.5	0
261	25720	33.6	0
261	25720	33.7	0
261	25720	33.8	0
261	25720	33.9	0
261	25720	34	0
261	25720	34.1	0
261	25720	34.2	0
261	25720	34.3	0
261	25720	34.4	0
261	25720	34.5	0
261	25720	34.6	0
261	25720	34.7	0
261	25720	34.8	0
261	25720	34.9	0
261	25720	35	0
261	25720	35.1	0
261	25720	35.2	0
261	25720	35.3	0
261	25720	35.4	0
261	25720	35.5	0
261	25720	35.6	0
261	25720	35.7	0
261	25720	35.8	0
261	25720	35.9	0
261	25720	36	0
261	25720	36.1	0
261	25720	36.2	0
261	25720	36.3	0
261	25720	36.4	0
261	25720	36.5	0
261	25720	36.6	0
261	25720	36.7	0
261	25720	36.8	0
261	25720	36.9	0
261	25720	37	0
261	25720	37.1	0
261	25720	37.2	0
261	25720	37.3	0
261	25720	37.4	0
261	25720	37.5	0
261	25720	37.6	0
261	25720	37.7	0
261	25720	37.8	0
261	25720	37.9	0
261	25720	38	0
261	25720	38.1	0
261	25720	38.2	0
261	25720	38.3	0
261	25720	38.4	0
261	25720	38.5	0
261	25720	38.6	0
261	25720	38.7	0
261	25720	38.8	0
261	25720	38.9	0
261	25720	39	0
261	25720	39.1	0
261	25720	39.2	0
261	25720	39.3	0
261	25720	39.4	0
261	25720	39.5	0
261	25720	39.6	0
261	25720	39.7	0
261	25720	39.8	0
261	25720	39.9	0
261	25720	40	0
261	25720	40.1	0
261	25720	40.2	0
261	25720	40.3	0
261	25720	40.4	0
261	25720	40.5	0
261	25720	40.6	0
261	25720	40.7	0
261	25720	40.8	0
261	25720	40.9	0
261	25720	41	0
261	25720	41.1	0
261	25720	41.2	0
261	25720	41.3	0
261	25720	41.4	0
261	25720	41.5	0
261	25720	41.6	0
261	25720	41.7	0
261	25720	41.8	0
261	25720	41.9	0
261	25720	42	0
261	25720	42.1	0
261	25720	42.2	0
261	25720	42.3	0
261	25720	42.4	0
261	25720	42.5	0
261	25720	42.6	0
261	25720	42.7	0
261	25720	42.8	0
261	25720	42.9	0
261	25720	43	0
261	25720	43.1	0
261	25720	43.2	0
261	25720	43.3	0
261	25720	43.4	0
261	25720	43.5	0
261	25720	43.6	0
261	25720	43.7	0
261	25720	43.8	0
261	25720	43.9	0
261	25720	44	0
261	25720	44.1	0
261	25720	44.2	0
261	25720	44.3	0
261	25720	44.4	0
261	25720	44.5	0
261	25720	44.6	0
261	25720	44.7	0
261	25720	44.8	0
261	25720	44.9	0
261	25720	45	0
261	25720	45.1	0
261	25720	45.2	0
261	25720	45.3	0
261	25720	45.4	0
261	25720	45.5	0
261	25720	45.6	0
261	25720	45.7	0
261	25720	45.8	0
261	25720	45.9	0
261	25720	46	0
261	25720	46.1	0
261	25720	46.2	0
261	25720	46.3	0
261	25720	46.4	0
261	25720	46.5	0
261	25720	46.6	0
261	25720	46.7	0
261	25720	46.8	0
261	25720	46.9	0
261	25720	47	0
261	25720	47.1	0
261	25720	47.2	0
261	25720	47.3	0
261	25720	47.4	0
261	25720	47.5	0
261	25720	47.6	0
261	25720	47.7	0
261	25720	47.8	0
261	25720	47.9	0
261	25720	48	0
261	25720	48.1	0
261	25720	48.2	0
261	25720	48.3	0
261	25720	48.4	0
261	25720	48.5	0
261	25720	48.6	0
261	25720	48.7	0
261	25720	48.8	0
261	25720	48.9	0
261	25720	49	0
261	25720	49.1	0
261	25720	49.2	0
261	25720	49.3	0
261	25720	49.4	0
261	25720	49.5	0
261	25720	49.6	0
261	25720	49.7	0
261	25720	49.8	0
261	25720	49.9	0
261	25720	50	0

